&NAMPGD
  LGARDEN=.FALSE.,
  LWATER_TO_NATURE=.FALSE.,
  LTOWN_TO_ROCK=.TRUE.,
/
&NAMGRID
YLGROPT%NLOEN(1)= 20,
YLGROPT%NLOEN(2)= 30,
YLGROPT%NLOEN(3)= 36,
YLGROPT%NLOEN(4)= 48,
YLGROPT%NLOEN(5)= 54,
YLGROPT%NLOEN(6)= 60,
YLGROPT%NLOEN(7)= 64,
YLGROPT%NLOEN(8)= 80,
YLGROPT%NLOEN(9)= 80,
YLGROPT%NLOEN(10)= 90,
YLGROPT%NLOEN(11)= 90,
YLGROPT%NLOEN(12)= 96,
YLGROPT%NLOEN(13)=100,
YLGROPT%NLOEN(14)=100,
YLGROPT%NLOEN(15)=100,
YLGROPT%NLOEN(16)=100,
YLGROPT%NLOEN(17)=100,
YLGROPT%NLOEN(18)=100,
YLGROPT%NLOEN(19)=100,
YLGROPT%NLOEN(20)=100,
YLGROPT%NLOEN(21)=100,
YLGROPT%NLOEN(22)=100,
YLGROPT%NLOEN(23)=100,
YLGROPT%NLOEN(24)=100,
YLGROPT%NLOEN(25)=100,
YLGROPT%NLOEN(26)=100,
YLGROPT%NLOEN(27)=100,
YLGROPT%NLOEN(28)=100,
YLGROPT%NLOEN(29)=100,
YLGROPT%NLOEN(30)=100,
YLGROPT%NLOEN(31)=100,
YLGROPT%NLOEN(32)=100,
YLGROPT%NLOEN(33)=100,
YLGROPT%NLOEN(34)=100,
YLGROPT%NLOEN(35)=100,
YLGROPT%NLOEN(36)=100,
YLGROPT%NLOEN(37)=100,
YLGROPT%NLOEN(38)=100,
YLGROPT%NLOEN(39)= 96,
YLGROPT%NLOEN(40)= 90,
YLGROPT%NLOEN(41)= 90,
YLGROPT%NLOEN(42)= 80,
YLGROPT%NLOEN(43)= 80,
YLGROPT%NLOEN(44)= 64,
YLGROPT%NLOEN(45)= 60,
YLGROPT%NLOEN(46)= 54,
YLGROPT%NLOEN(47)= 48,
YLGROPT%NLOEN(48)= 36,
YLGROPT%NLOEN(49)= 30,
YLGROPT%NLOEN(50)= 20,
YLGROPT%NSMAX=49,
YLGROPT%NDGLG=50,
YLGROPT%NDLON=100,
/
