&NAMGRID
  YLGROPT%LELAM=.TRUE.,
  YLGROPT%NDLON=3,
  YLGROPT%NDGLG=3,
  YLGROPT%DXINMETRES=600000.,
  YLGROPT%DYINMETRES=600000.,
  YLGROPT%LADINDEGREES=46.2,
  YLGROPT%LATIN1INDEGREES=46.2,
  YLGROPT%LATIN2INDEGREES=46.2,
  YLGROPT%LOVINDEGREES=2.0,
  YLGROPT%NUX=3,
  YLGROPT%NUY=3,
/

