&NAMGRID
  YLGROPT%LELAM=.TRUE.,
  YLGROPT%NDLON=64,
  YLGROPT%NDGLG=64,
  YLGROPT%DXINMETRES=50000.,
  YLGROPT%DYINMETRES=50000.,
  YLGROPT%LADINDEGREES=46.2,
  YLGROPT%LATIN1INDEGREES=46.2,
  YLGROPT%LATIN2INDEGREES=46.2,
  YLGROPT%LOVINDEGREES=2.0,
  YLGROPT%NUX=53,
  YLGROPT%NUY=53,
/

