&NAMGRID
  YLGROPT%LELAM=.TRUE.,
  YLGROPT%NDLON=64,
  YLGROPT%NDGLG=64,
  YLGROPT%DXINMETRES=4000.,
  YLGROPT%DYINMETRES=4000.,
  YLGROPT%LADINDEGREES=46.2,
  YLGROPT%LATIN1INDEGREES=46.2,
  YLGROPT%LATIN2INDEGREES=46.2,
  YLGROPT%LOVINDEGREES=2.0,
  YLGROPT%NUX=501,
  YLGROPT%NUY=501,
/

