&NAMGRID
  YLGROPT%NDLON=16,
  YLGROPT%NDGLG=16,
  YLGROPT%ZLONW=+6,
  YLGROPT%ZLONE=+8,
  YLGROPT%ZLATS=+45,
  YLGROPT%ZLATN=+47,
  YLGROPT%LATLON=.TRUE.,
/
