&NAMGRID
  YLGROPT%NDLON=8,
  YLGROPT%NDGLG=8,
  YLGROPT%ZLONW=+6.5,
  YLGROPT%ZLONE=+7.5,
  YLGROPT%ZLATS=+45.5,
  YLGROPT%ZLATN=+46.5,
  YLGROPT%LATLON=.TRUE.,
/
