&NAMGRID
YLGROPT%NLOEN(   1)=  18,
YLGROPT%NLOEN(   2)=  30,
YLGROPT%NLOEN(   3)=  32,
YLGROPT%NLOEN(   4)=  40,
YLGROPT%NLOEN(   5)=  48,
YLGROPT%NLOEN(   6)=  50,
YLGROPT%NLOEN(   7)=  60,
YLGROPT%NLOEN(   8)=  64,
YLGROPT%NLOEN(   9)=  72,
YLGROPT%NLOEN(  10)=  80,
YLGROPT%NLOEN(  11)=  90,
YLGROPT%NLOEN(  12)=  96,
YLGROPT%NLOEN(  13)= 100,
YLGROPT%NLOEN(  14)= 108,
YLGROPT%NLOEN(  15)= 120,
YLGROPT%NLOEN(  16)= 128,
YLGROPT%NLOEN(  17)= 128,
YLGROPT%NLOEN(  18)= 144,
YLGROPT%NLOEN(  19)= 144,
YLGROPT%NLOEN(  20)= 150,
YLGROPT%NLOEN(  21)= 160,
YLGROPT%NLOEN(  22)= 160,
YLGROPT%NLOEN(  23)= 180,
YLGROPT%NLOEN(  24)= 180,
YLGROPT%NLOEN(  25)= 192,
YLGROPT%NLOEN(  26)= 192,
YLGROPT%NLOEN(  27)= 200,
YLGROPT%NLOEN(  28)= 200,
YLGROPT%NLOEN(  29)= 216,
YLGROPT%NLOEN(  30)= 216,
YLGROPT%NLOEN(  31)= 240,
YLGROPT%NLOEN(  32)= 240,
YLGROPT%NLOEN(  33)= 240,
YLGROPT%NLOEN(  34)= 250,
YLGROPT%NLOEN(  35)= 250,
YLGROPT%NLOEN(  36)= 256,
YLGROPT%NLOEN(  37)= 270,
YLGROPT%NLOEN(  38)= 270,
YLGROPT%NLOEN(  39)= 288,
YLGROPT%NLOEN(  40)= 288,
YLGROPT%NLOEN(  41)= 288,
YLGROPT%NLOEN(  42)= 300,
YLGROPT%NLOEN(  43)= 300,
YLGROPT%NLOEN(  44)= 320,
YLGROPT%NLOEN(  45)= 320,
YLGROPT%NLOEN(  46)= 320,
YLGROPT%NLOEN(  47)= 360,
YLGROPT%NLOEN(  48)= 360,
YLGROPT%NLOEN(  49)= 360,
YLGROPT%NLOEN(  50)= 360,
YLGROPT%NLOEN(  51)= 360,
YLGROPT%NLOEN(  52)= 360,
YLGROPT%NLOEN(  53)= 384,
YLGROPT%NLOEN(  54)= 384,
YLGROPT%NLOEN(  55)= 384,
YLGROPT%NLOEN(  56)= 400,
YLGROPT%NLOEN(  57)= 400,
YLGROPT%NLOEN(  58)= 400,
YLGROPT%NLOEN(  59)= 432,
YLGROPT%NLOEN(  60)= 432,
YLGROPT%NLOEN(  61)= 432,
YLGROPT%NLOEN(  62)= 432,
YLGROPT%NLOEN(  63)= 432,
YLGROPT%NLOEN(  64)= 450,
YLGROPT%NLOEN(  65)= 450,
YLGROPT%NLOEN(  66)= 480,
YLGROPT%NLOEN(  67)= 480,
YLGROPT%NLOEN(  68)= 480,
YLGROPT%NLOEN(  69)= 480,
YLGROPT%NLOEN(  70)= 480,
YLGROPT%NLOEN(  71)= 486,
YLGROPT%NLOEN(  72)= 500,
YLGROPT%NLOEN(  73)= 500,
YLGROPT%NLOEN(  74)= 512,
YLGROPT%NLOEN(  75)= 512,
YLGROPT%NLOEN(  76)= 540,
YLGROPT%NLOEN(  77)= 540,
YLGROPT%NLOEN(  78)= 540,
YLGROPT%NLOEN(  79)= 540,
YLGROPT%NLOEN(  80)= 576,
YLGROPT%NLOEN(  81)= 576,
YLGROPT%NLOEN(  82)= 576,
YLGROPT%NLOEN(  83)= 576,
YLGROPT%NLOEN(  84)= 576,
YLGROPT%NLOEN(  85)= 576,
YLGROPT%NLOEN(  86)= 600,
YLGROPT%NLOEN(  87)= 600,
YLGROPT%NLOEN(  88)= 600,
YLGROPT%NLOEN(  89)= 600,
YLGROPT%NLOEN(  90)= 640,
YLGROPT%NLOEN(  91)= 640,
YLGROPT%NLOEN(  92)= 640,
YLGROPT%NLOEN(  93)= 640,
YLGROPT%NLOEN(  94)= 640,
YLGROPT%NLOEN(  95)= 640,
YLGROPT%NLOEN(  96)= 648,
YLGROPT%NLOEN(  97)= 720,
YLGROPT%NLOEN(  98)= 720,
YLGROPT%NLOEN(  99)= 720,
YLGROPT%NLOEN( 100)= 720,
YLGROPT%NLOEN( 101)= 720,
YLGROPT%NLOEN( 102)= 720,
YLGROPT%NLOEN( 103)= 720,
YLGROPT%NLOEN( 104)= 720,
YLGROPT%NLOEN( 105)= 720,
YLGROPT%NLOEN( 106)= 720,
YLGROPT%NLOEN( 107)= 720,
YLGROPT%NLOEN( 108)= 750,
YLGROPT%NLOEN( 109)= 750,
YLGROPT%NLOEN( 110)= 750,
YLGROPT%NLOEN( 111)= 750,
YLGROPT%NLOEN( 112)= 750,
YLGROPT%NLOEN( 113)= 768,
YLGROPT%NLOEN( 114)= 768,
YLGROPT%NLOEN( 115)= 768,
YLGROPT%NLOEN( 116)= 800,
YLGROPT%NLOEN( 117)= 800,
YLGROPT%NLOEN( 118)= 800,
YLGROPT%NLOEN( 119)= 800,
YLGROPT%NLOEN( 120)= 800,
YLGROPT%NLOEN( 121)= 810,
YLGROPT%NLOEN( 122)= 864,
YLGROPT%NLOEN( 123)= 864,
YLGROPT%NLOEN( 124)= 864,
YLGROPT%NLOEN( 125)= 864,
YLGROPT%NLOEN( 126)= 864,
YLGROPT%NLOEN( 127)= 864,
YLGROPT%NLOEN( 128)= 864,
YLGROPT%NLOEN( 129)= 864,
YLGROPT%NLOEN( 130)= 864,
YLGROPT%NLOEN( 131)= 900,
YLGROPT%NLOEN( 132)= 900,
YLGROPT%NLOEN( 133)= 900,
YLGROPT%NLOEN( 134)= 900,
YLGROPT%NLOEN( 135)= 900,
YLGROPT%NLOEN( 136)= 960,
YLGROPT%NLOEN( 137)= 960,
YLGROPT%NLOEN( 138)= 960,
YLGROPT%NLOEN( 139)= 960,
YLGROPT%NLOEN( 140)= 960,
YLGROPT%NLOEN( 141)= 960,
YLGROPT%NLOEN( 142)= 960,
YLGROPT%NLOEN( 143)= 960,
YLGROPT%NLOEN( 144)= 960,
YLGROPT%NLOEN( 145)= 960,
YLGROPT%NLOEN( 146)= 972,
YLGROPT%NLOEN( 147)= 972,
YLGROPT%NLOEN( 148)=1000,
YLGROPT%NLOEN( 149)=1000,
YLGROPT%NLOEN( 150)=1000,
YLGROPT%NLOEN( 151)=1000,
YLGROPT%NLOEN( 152)=1024,
YLGROPT%NLOEN( 153)=1024,
YLGROPT%NLOEN( 154)=1024,
YLGROPT%NLOEN( 155)=1024,
YLGROPT%NLOEN( 156)=1080,
YLGROPT%NLOEN( 157)=1080,
YLGROPT%NLOEN( 158)=1080,
YLGROPT%NLOEN( 159)=1080,
YLGROPT%NLOEN( 160)=1080,
YLGROPT%NLOEN( 161)=1080,
YLGROPT%NLOEN( 162)=1080,
YLGROPT%NLOEN( 163)=1080,
YLGROPT%NLOEN( 164)=1080,
YLGROPT%NLOEN( 165)=1152,
YLGROPT%NLOEN( 166)=1152,
YLGROPT%NLOEN( 167)=1152,
YLGROPT%NLOEN( 168)=1152,
YLGROPT%NLOEN( 169)=1152,
YLGROPT%NLOEN( 170)=1152,
YLGROPT%NLOEN( 171)=1152,
YLGROPT%NLOEN( 172)=1152,
YLGROPT%NLOEN( 173)=1152,
YLGROPT%NLOEN( 174)=1152,
YLGROPT%NLOEN( 175)=1152,
YLGROPT%NLOEN( 176)=1200,
YLGROPT%NLOEN( 177)=1200,
YLGROPT%NLOEN( 178)=1200,
YLGROPT%NLOEN( 179)=1200,
YLGROPT%NLOEN( 180)=1200,
YLGROPT%NLOEN( 181)=1200,
YLGROPT%NLOEN( 182)=1200,
YLGROPT%NLOEN( 183)=1250,
YLGROPT%NLOEN( 184)=1250,
YLGROPT%NLOEN( 185)=1250,
YLGROPT%NLOEN( 186)=1250,
YLGROPT%NLOEN( 187)=1250,
YLGROPT%NLOEN( 188)=1250,
YLGROPT%NLOEN( 189)=1250,
YLGROPT%NLOEN( 190)=1250,
YLGROPT%NLOEN( 191)=1250,
YLGROPT%NLOEN( 192)=1280,
YLGROPT%NLOEN( 193)=1280,
YLGROPT%NLOEN( 194)=1280,
YLGROPT%NLOEN( 195)=1280,
YLGROPT%NLOEN( 196)=1296,
YLGROPT%NLOEN( 197)=1296,
YLGROPT%NLOEN( 198)=1296,
YLGROPT%NLOEN( 199)=1350,
YLGROPT%NLOEN( 200)=1350,
YLGROPT%NLOEN( 201)=1350,
YLGROPT%NLOEN( 202)=1350,
YLGROPT%NLOEN( 203)=1350,
YLGROPT%NLOEN( 204)=1350,
YLGROPT%NLOEN( 205)=1350,
YLGROPT%NLOEN( 206)=1350,
YLGROPT%NLOEN( 207)=1440,
YLGROPT%NLOEN( 208)=1440,
YLGROPT%NLOEN( 209)=1440,
YLGROPT%NLOEN( 210)=1440,
YLGROPT%NLOEN( 211)=1440,
YLGROPT%NLOEN( 212)=1440,
YLGROPT%NLOEN( 213)=1440,
YLGROPT%NLOEN( 214)=1440,
YLGROPT%NLOEN( 215)=1440,
YLGROPT%NLOEN( 216)=1440,
YLGROPT%NLOEN( 217)=1440,
YLGROPT%NLOEN( 218)=1440,
YLGROPT%NLOEN( 219)=1440,
YLGROPT%NLOEN( 220)=1440,
YLGROPT%NLOEN( 221)=1440,
YLGROPT%NLOEN( 222)=1458,
YLGROPT%NLOEN( 223)=1458,
YLGROPT%NLOEN( 224)=1500,
YLGROPT%NLOEN( 225)=1500,
YLGROPT%NLOEN( 226)=1500,
YLGROPT%NLOEN( 227)=1500,
YLGROPT%NLOEN( 228)=1500,
YLGROPT%NLOEN( 229)=1500,
YLGROPT%NLOEN( 230)=1500,
YLGROPT%NLOEN( 231)=1536,
YLGROPT%NLOEN( 232)=1536,
YLGROPT%NLOEN( 233)=1536,
YLGROPT%NLOEN( 234)=1536,
YLGROPT%NLOEN( 235)=1536,
YLGROPT%NLOEN( 236)=1536,
YLGROPT%NLOEN( 237)=1600,
YLGROPT%NLOEN( 238)=1600,
YLGROPT%NLOEN( 239)=1600,
YLGROPT%NLOEN( 240)=1600,
YLGROPT%NLOEN( 241)=1600,
YLGROPT%NLOEN( 242)=1600,
YLGROPT%NLOEN( 243)=1600,
YLGROPT%NLOEN( 244)=1600,
YLGROPT%NLOEN( 245)=1600,
YLGROPT%NLOEN( 246)=1600,
YLGROPT%NLOEN( 247)=1620,
YLGROPT%NLOEN( 248)=1620,
YLGROPT%NLOEN( 249)=1620,
YLGROPT%NLOEN( 250)=1728,
YLGROPT%NLOEN( 251)=1728,
YLGROPT%NLOEN( 252)=1728,
YLGROPT%NLOEN( 253)=1728,
YLGROPT%NLOEN( 254)=1728,
YLGROPT%NLOEN( 255)=1728,
YLGROPT%NLOEN( 256)=1728,
YLGROPT%NLOEN( 257)=1728,
YLGROPT%NLOEN( 258)=1728,
YLGROPT%NLOEN( 259)=1728,
YLGROPT%NLOEN( 260)=1728,
YLGROPT%NLOEN( 261)=1728,
YLGROPT%NLOEN( 262)=1728,
YLGROPT%NLOEN( 263)=1728,
YLGROPT%NLOEN( 264)=1728,
YLGROPT%NLOEN( 265)=1728,
YLGROPT%NLOEN( 266)=1728,
YLGROPT%NLOEN( 267)=1800,
YLGROPT%NLOEN( 268)=1800,
YLGROPT%NLOEN( 269)=1800,
YLGROPT%NLOEN( 270)=1800,
YLGROPT%NLOEN( 271)=1800,
YLGROPT%NLOEN( 272)=1800,
YLGROPT%NLOEN( 273)=1800,
YLGROPT%NLOEN( 274)=1800,
YLGROPT%NLOEN( 275)=1800,
YLGROPT%NLOEN( 276)=1800,
YLGROPT%NLOEN( 277)=1800,
YLGROPT%NLOEN( 278)=1800,
YLGROPT%NLOEN( 279)=1920,
YLGROPT%NLOEN( 280)=1920,
YLGROPT%NLOEN( 281)=1920,
YLGROPT%NLOEN( 282)=1920,
YLGROPT%NLOEN( 283)=1920,
YLGROPT%NLOEN( 284)=1920,
YLGROPT%NLOEN( 285)=1920,
YLGROPT%NLOEN( 286)=1920,
YLGROPT%NLOEN( 287)=1920,
YLGROPT%NLOEN( 288)=1920,
YLGROPT%NLOEN( 289)=1920,
YLGROPT%NLOEN( 290)=1920,
YLGROPT%NLOEN( 291)=1920,
YLGROPT%NLOEN( 292)=1920,
YLGROPT%NLOEN( 293)=1920,
YLGROPT%NLOEN( 294)=1920,
YLGROPT%NLOEN( 295)=1920,
YLGROPT%NLOEN( 296)=1920,
YLGROPT%NLOEN( 297)=1920,
YLGROPT%NLOEN( 298)=1944,
YLGROPT%NLOEN( 299)=1944,
YLGROPT%NLOEN( 300)=1944,
YLGROPT%NLOEN( 301)=1944,
YLGROPT%NLOEN( 302)=2000,
YLGROPT%NLOEN( 303)=2000,
YLGROPT%NLOEN( 304)=2000,
YLGROPT%NLOEN( 305)=2000,
YLGROPT%NLOEN( 306)=2000,
YLGROPT%NLOEN( 307)=2000,
YLGROPT%NLOEN( 308)=2000,
YLGROPT%NLOEN( 309)=2000,
YLGROPT%NLOEN( 310)=2000,
YLGROPT%NLOEN( 311)=2048,
YLGROPT%NLOEN( 312)=2048,
YLGROPT%NLOEN( 313)=2048,
YLGROPT%NLOEN( 314)=2048,
YLGROPT%NLOEN( 315)=2048,
YLGROPT%NLOEN( 316)=2048,
YLGROPT%NLOEN( 317)=2048,
YLGROPT%NLOEN( 318)=2048,
YLGROPT%NLOEN( 319)=2160,
YLGROPT%NLOEN( 320)=2160,
YLGROPT%NLOEN( 321)=2160,
YLGROPT%NLOEN( 322)=2160,
YLGROPT%NLOEN( 323)=2160,
YLGROPT%NLOEN( 324)=2160,
YLGROPT%NLOEN( 325)=2160,
YLGROPT%NLOEN( 326)=2160,
YLGROPT%NLOEN( 327)=2160,
YLGROPT%NLOEN( 328)=2160,
YLGROPT%NLOEN( 329)=2160,
YLGROPT%NLOEN( 330)=2160,
YLGROPT%NLOEN( 331)=2160,
YLGROPT%NLOEN( 332)=2160,
YLGROPT%NLOEN( 333)=2160,
YLGROPT%NLOEN( 334)=2160,
YLGROPT%NLOEN( 335)=2160,
YLGROPT%NLOEN( 336)=2160,
YLGROPT%NLOEN( 337)=2250,
YLGROPT%NLOEN( 338)=2250,
YLGROPT%NLOEN( 339)=2250,
YLGROPT%NLOEN( 340)=2250,
YLGROPT%NLOEN( 341)=2250,
YLGROPT%NLOEN( 342)=2250,
YLGROPT%NLOEN( 343)=2250,
YLGROPT%NLOEN( 344)=2250,
YLGROPT%NLOEN( 345)=2250,
YLGROPT%NLOEN( 346)=2250,
YLGROPT%NLOEN( 347)=2250,
YLGROPT%NLOEN( 348)=2250,
YLGROPT%NLOEN( 349)=2250,
YLGROPT%NLOEN( 350)=2250,
YLGROPT%NLOEN( 351)=2250,
YLGROPT%NLOEN( 352)=2304,
YLGROPT%NLOEN( 353)=2304,
YLGROPT%NLOEN( 354)=2304,
YLGROPT%NLOEN( 355)=2304,
YLGROPT%NLOEN( 356)=2304,
YLGROPT%NLOEN( 357)=2304,
YLGROPT%NLOEN( 358)=2304,
YLGROPT%NLOEN( 359)=2304,
YLGROPT%NLOEN( 360)=2304,
YLGROPT%NLOEN( 361)=2400,
YLGROPT%NLOEN( 362)=2400,
YLGROPT%NLOEN( 363)=2400,
YLGROPT%NLOEN( 364)=2400,
YLGROPT%NLOEN( 365)=2400,
YLGROPT%NLOEN( 366)=2400,
YLGROPT%NLOEN( 367)=2400,
YLGROPT%NLOEN( 368)=2400,
YLGROPT%NLOEN( 369)=2400,
YLGROPT%NLOEN( 370)=2400,
YLGROPT%NLOEN( 371)=2400,
YLGROPT%NLOEN( 372)=2400,
YLGROPT%NLOEN( 373)=2400,
YLGROPT%NLOEN( 374)=2400,
YLGROPT%NLOEN( 375)=2400,
YLGROPT%NLOEN( 376)=2400,
YLGROPT%NLOEN( 377)=2430,
YLGROPT%NLOEN( 378)=2430,
YLGROPT%NLOEN( 379)=2430,
YLGROPT%NLOEN( 380)=2430,
YLGROPT%NLOEN( 381)=2430,
YLGROPT%NLOEN( 382)=2500,
YLGROPT%NLOEN( 383)=2500,
YLGROPT%NLOEN( 384)=2500,
YLGROPT%NLOEN( 385)=2500,
YLGROPT%NLOEN( 386)=2500,
YLGROPT%NLOEN( 387)=2500,
YLGROPT%NLOEN( 388)=2500,
YLGROPT%NLOEN( 389)=2500,
YLGROPT%NLOEN( 390)=2500,
YLGROPT%NLOEN( 391)=2500,
YLGROPT%NLOEN( 392)=2500,
YLGROPT%NLOEN( 393)=2560,
YLGROPT%NLOEN( 394)=2560,
YLGROPT%NLOEN( 395)=2560,
YLGROPT%NLOEN( 396)=2560,
YLGROPT%NLOEN( 397)=2560,
YLGROPT%NLOEN( 398)=2560,
YLGROPT%NLOEN( 399)=2560,
YLGROPT%NLOEN( 400)=2560,
YLGROPT%NLOEN( 401)=2560,
YLGROPT%NLOEN( 402)=2560,
YLGROPT%NLOEN( 403)=2592,
YLGROPT%NLOEN( 404)=2592,
YLGROPT%NLOEN( 405)=2592,
YLGROPT%NLOEN( 406)=2592,
YLGROPT%NLOEN( 407)=2592,
YLGROPT%NLOEN( 408)=2700,
YLGROPT%NLOEN( 409)=2700,
YLGROPT%NLOEN( 410)=2700,
YLGROPT%NLOEN( 411)=2700,
YLGROPT%NLOEN( 412)=2700,
YLGROPT%NLOEN( 413)=2700,
YLGROPT%NLOEN( 414)=2700,
YLGROPT%NLOEN( 415)=2700,
YLGROPT%NLOEN( 416)=2700,
YLGROPT%NLOEN( 417)=2700,
YLGROPT%NLOEN( 418)=2700,
YLGROPT%NLOEN( 419)=2700,
YLGROPT%NLOEN( 420)=2700,
YLGROPT%NLOEN( 421)=2700,
YLGROPT%NLOEN( 422)=2700,
YLGROPT%NLOEN( 423)=2700,
YLGROPT%NLOEN( 424)=2700,
YLGROPT%NLOEN( 425)=2700,
YLGROPT%NLOEN( 426)=2880,
YLGROPT%NLOEN( 427)=2880,
YLGROPT%NLOEN( 428)=2880,
YLGROPT%NLOEN( 429)=2880,
YLGROPT%NLOEN( 430)=2880,
YLGROPT%NLOEN( 431)=2880,
YLGROPT%NLOEN( 432)=2880,
YLGROPT%NLOEN( 433)=2880,
YLGROPT%NLOEN( 434)=2880,
YLGROPT%NLOEN( 435)=2880,
YLGROPT%NLOEN( 436)=2880,
YLGROPT%NLOEN( 437)=2880,
YLGROPT%NLOEN( 438)=2880,
YLGROPT%NLOEN( 439)=2880,
YLGROPT%NLOEN( 440)=2880,
YLGROPT%NLOEN( 441)=2880,
YLGROPT%NLOEN( 442)=2880,
YLGROPT%NLOEN( 443)=2880,
YLGROPT%NLOEN( 444)=2880,
YLGROPT%NLOEN( 445)=2880,
YLGROPT%NLOEN( 446)=2880,
YLGROPT%NLOEN( 447)=2880,
YLGROPT%NLOEN( 448)=2880,
YLGROPT%NLOEN( 449)=2880,
YLGROPT%NLOEN( 450)=2880,
YLGROPT%NLOEN( 451)=2880,
YLGROPT%NLOEN( 452)=2880,
YLGROPT%NLOEN( 453)=2880,
YLGROPT%NLOEN( 454)=2880,
YLGROPT%NLOEN( 455)=2880,
YLGROPT%NLOEN( 456)=2916,
YLGROPT%NLOEN( 457)=2916,
YLGROPT%NLOEN( 458)=2916,
YLGROPT%NLOEN( 459)=2916,
YLGROPT%NLOEN( 460)=2916,
YLGROPT%NLOEN( 461)=2916,
YLGROPT%NLOEN( 462)=2916,
YLGROPT%NLOEN( 463)=3000,
YLGROPT%NLOEN( 464)=3000,
YLGROPT%NLOEN( 465)=3000,
YLGROPT%NLOEN( 466)=3000,
YLGROPT%NLOEN( 467)=3000,
YLGROPT%NLOEN( 468)=3000,
YLGROPT%NLOEN( 469)=3000,
YLGROPT%NLOEN( 470)=3000,
YLGROPT%NLOEN( 471)=3000,
YLGROPT%NLOEN( 472)=3000,
YLGROPT%NLOEN( 473)=3000,
YLGROPT%NLOEN( 474)=3000,
YLGROPT%NLOEN( 475)=3000,
YLGROPT%NLOEN( 476)=3000,
YLGROPT%NLOEN( 477)=3072,
YLGROPT%NLOEN( 478)=3072,
YLGROPT%NLOEN( 479)=3072,
YLGROPT%NLOEN( 480)=3072,
YLGROPT%NLOEN( 481)=3072,
YLGROPT%NLOEN( 482)=3072,
YLGROPT%NLOEN( 483)=3072,
YLGROPT%NLOEN( 484)=3072,
YLGROPT%NLOEN( 485)=3072,
YLGROPT%NLOEN( 486)=3072,
YLGROPT%NLOEN( 487)=3072,
YLGROPT%NLOEN( 488)=3072,
YLGROPT%NLOEN( 489)=3200,
YLGROPT%NLOEN( 490)=3200,
YLGROPT%NLOEN( 491)=3200,
YLGROPT%NLOEN( 492)=3200,
YLGROPT%NLOEN( 493)=3200,
YLGROPT%NLOEN( 494)=3200,
YLGROPT%NLOEN( 495)=3200,
YLGROPT%NLOEN( 496)=3200,
YLGROPT%NLOEN( 497)=3200,
YLGROPT%NLOEN( 498)=3200,
YLGROPT%NLOEN( 499)=3200,
YLGROPT%NLOEN( 500)=3200,
YLGROPT%NLOEN( 501)=3200,
YLGROPT%NLOEN( 502)=3200,
YLGROPT%NLOEN( 503)=3200,
YLGROPT%NLOEN( 504)=3200,
YLGROPT%NLOEN( 505)=3200,
YLGROPT%NLOEN( 506)=3200,
YLGROPT%NLOEN( 507)=3200,
YLGROPT%NLOEN( 508)=3200,
YLGROPT%NLOEN( 509)=3200,
YLGROPT%NLOEN( 510)=3200,
YLGROPT%NLOEN( 511)=3240,
YLGROPT%NLOEN( 512)=3240,
YLGROPT%NLOEN( 513)=3240,
YLGROPT%NLOEN( 514)=3240,
YLGROPT%NLOEN( 515)=3240,
YLGROPT%NLOEN( 516)=3240,
YLGROPT%NLOEN( 517)=3240,
YLGROPT%NLOEN( 518)=3456,
YLGROPT%NLOEN( 519)=3456,
YLGROPT%NLOEN( 520)=3456,
YLGROPT%NLOEN( 521)=3456,
YLGROPT%NLOEN( 522)=3456,
YLGROPT%NLOEN( 523)=3456,
YLGROPT%NLOEN( 524)=3456,
YLGROPT%NLOEN( 525)=3456,
YLGROPT%NLOEN( 526)=3456,
YLGROPT%NLOEN( 527)=3456,
YLGROPT%NLOEN( 528)=3456,
YLGROPT%NLOEN( 529)=3456,
YLGROPT%NLOEN( 530)=3456,
YLGROPT%NLOEN( 531)=3456,
YLGROPT%NLOEN( 532)=3456,
YLGROPT%NLOEN( 533)=3456,
YLGROPT%NLOEN( 534)=3456,
YLGROPT%NLOEN( 535)=3456,
YLGROPT%NLOEN( 536)=3456,
YLGROPT%NLOEN( 537)=3456,
YLGROPT%NLOEN( 538)=3456,
YLGROPT%NLOEN( 539)=3456,
YLGROPT%NLOEN( 540)=3456,
YLGROPT%NLOEN( 541)=3456,
YLGROPT%NLOEN( 542)=3456,
YLGROPT%NLOEN( 543)=3456,
YLGROPT%NLOEN( 544)=3456,
YLGROPT%NLOEN( 545)=3456,
YLGROPT%NLOEN( 546)=3456,
YLGROPT%NLOEN( 547)=3456,
YLGROPT%NLOEN( 548)=3456,
YLGROPT%NLOEN( 549)=3456,
YLGROPT%NLOEN( 550)=3456,
YLGROPT%NLOEN( 551)=3456,
YLGROPT%NLOEN( 552)=3456,
YLGROPT%NLOEN( 553)=3456,
YLGROPT%NLOEN( 554)=3456,
YLGROPT%NLOEN( 555)=3600,
YLGROPT%NLOEN( 556)=3600,
YLGROPT%NLOEN( 557)=3600,
YLGROPT%NLOEN( 558)=3600,
YLGROPT%NLOEN( 559)=3600,
YLGROPT%NLOEN( 560)=3600,
YLGROPT%NLOEN( 561)=3600,
YLGROPT%NLOEN( 562)=3600,
YLGROPT%NLOEN( 563)=3600,
YLGROPT%NLOEN( 564)=3600,
YLGROPT%NLOEN( 565)=3600,
YLGROPT%NLOEN( 566)=3600,
YLGROPT%NLOEN( 567)=3600,
YLGROPT%NLOEN( 568)=3600,
YLGROPT%NLOEN( 569)=3600,
YLGROPT%NLOEN( 570)=3600,
YLGROPT%NLOEN( 571)=3600,
YLGROPT%NLOEN( 572)=3600,
YLGROPT%NLOEN( 573)=3600,
YLGROPT%NLOEN( 574)=3600,
YLGROPT%NLOEN( 575)=3600,
YLGROPT%NLOEN( 576)=3600,
YLGROPT%NLOEN( 577)=3600,
YLGROPT%NLOEN( 578)=3600,
YLGROPT%NLOEN( 579)=3600,
YLGROPT%NLOEN( 580)=3750,
YLGROPT%NLOEN( 581)=3750,
YLGROPT%NLOEN( 582)=3750,
YLGROPT%NLOEN( 583)=3750,
YLGROPT%NLOEN( 584)=3750,
YLGROPT%NLOEN( 585)=3750,
YLGROPT%NLOEN( 586)=3750,
YLGROPT%NLOEN( 587)=3750,
YLGROPT%NLOEN( 588)=3750,
YLGROPT%NLOEN( 589)=3750,
YLGROPT%NLOEN( 590)=3750,
YLGROPT%NLOEN( 591)=3750,
YLGROPT%NLOEN( 592)=3750,
YLGROPT%NLOEN( 593)=3750,
YLGROPT%NLOEN( 594)=3750,
YLGROPT%NLOEN( 595)=3750,
YLGROPT%NLOEN( 596)=3750,
YLGROPT%NLOEN( 597)=3750,
YLGROPT%NLOEN( 598)=3750,
YLGROPT%NLOEN( 599)=3750,
YLGROPT%NLOEN( 600)=3750,
YLGROPT%NLOEN( 601)=3750,
YLGROPT%NLOEN( 602)=3750,
YLGROPT%NLOEN( 603)=3750,
YLGROPT%NLOEN( 604)=3750,
YLGROPT%NLOEN( 605)=3750,
YLGROPT%NLOEN( 606)=3750,
YLGROPT%NLOEN( 607)=3840,
YLGROPT%NLOEN( 608)=3840,
YLGROPT%NLOEN( 609)=3840,
YLGROPT%NLOEN( 610)=3840,
YLGROPT%NLOEN( 611)=3840,
YLGROPT%NLOEN( 612)=3840,
YLGROPT%NLOEN( 613)=3840,
YLGROPT%NLOEN( 614)=3840,
YLGROPT%NLOEN( 615)=3840,
YLGROPT%NLOEN( 616)=3840,
YLGROPT%NLOEN( 617)=3840,
YLGROPT%NLOEN( 618)=3840,
YLGROPT%NLOEN( 619)=3840,
YLGROPT%NLOEN( 620)=3840,
YLGROPT%NLOEN( 621)=3840,
YLGROPT%NLOEN( 622)=3840,
YLGROPT%NLOEN( 623)=3888,
YLGROPT%NLOEN( 624)=3888,
YLGROPT%NLOEN( 625)=3888,
YLGROPT%NLOEN( 626)=3888,
YLGROPT%NLOEN( 627)=3888,
YLGROPT%NLOEN( 628)=3888,
YLGROPT%NLOEN( 629)=3888,
YLGROPT%NLOEN( 630)=3888,
YLGROPT%NLOEN( 631)=3888,
YLGROPT%NLOEN( 632)=4000,
YLGROPT%NLOEN( 633)=4000,
YLGROPT%NLOEN( 634)=4000,
YLGROPT%NLOEN( 635)=4000,
YLGROPT%NLOEN( 636)=4000,
YLGROPT%NLOEN( 637)=4000,
YLGROPT%NLOEN( 638)=4000,
YLGROPT%NLOEN( 639)=4000,
YLGROPT%NLOEN( 640)=4000,
YLGROPT%NLOEN( 641)=4000,
YLGROPT%NLOEN( 642)=4000,
YLGROPT%NLOEN( 643)=4000,
YLGROPT%NLOEN( 644)=4000,
YLGROPT%NLOEN( 645)=4000,
YLGROPT%NLOEN( 646)=4000,
YLGROPT%NLOEN( 647)=4000,
YLGROPT%NLOEN( 648)=4000,
YLGROPT%NLOEN( 649)=4000,
YLGROPT%NLOEN( 650)=4000,
YLGROPT%NLOEN( 651)=4000,
YLGROPT%NLOEN( 652)=4050,
YLGROPT%NLOEN( 653)=4050,
YLGROPT%NLOEN( 654)=4050,
YLGROPT%NLOEN( 655)=4050,
YLGROPT%NLOEN( 656)=4050,
YLGROPT%NLOEN( 657)=4050,
YLGROPT%NLOEN( 658)=4050,
YLGROPT%NLOEN( 659)=4050,
YLGROPT%NLOEN( 660)=4050,
YLGROPT%NLOEN( 661)=4096,
YLGROPT%NLOEN( 662)=4096,
YLGROPT%NLOEN( 663)=4096,
YLGROPT%NLOEN( 664)=4096,
YLGROPT%NLOEN( 665)=4096,
YLGROPT%NLOEN( 666)=4096,
YLGROPT%NLOEN( 667)=4096,
YLGROPT%NLOEN( 668)=4096,
YLGROPT%NLOEN( 669)=4096,
YLGROPT%NLOEN( 670)=4320,
YLGROPT%NLOEN( 671)=4320,
YLGROPT%NLOEN( 672)=4320,
YLGROPT%NLOEN( 673)=4320,
YLGROPT%NLOEN( 674)=4320,
YLGROPT%NLOEN( 675)=4320,
YLGROPT%NLOEN( 676)=4320,
YLGROPT%NLOEN( 677)=4320,
YLGROPT%NLOEN( 678)=4320,
YLGROPT%NLOEN( 679)=4320,
YLGROPT%NLOEN( 680)=4320,
YLGROPT%NLOEN( 681)=4320,
YLGROPT%NLOEN( 682)=4320,
YLGROPT%NLOEN( 683)=4320,
YLGROPT%NLOEN( 684)=4320,
YLGROPT%NLOEN( 685)=4320,
YLGROPT%NLOEN( 686)=4320,
YLGROPT%NLOEN( 687)=4320,
YLGROPT%NLOEN( 688)=4320,
YLGROPT%NLOEN( 689)=4320,
YLGROPT%NLOEN( 690)=4320,
YLGROPT%NLOEN( 691)=4320,
YLGROPT%NLOEN( 692)=4320,
YLGROPT%NLOEN( 693)=4320,
YLGROPT%NLOEN( 694)=4320,
YLGROPT%NLOEN( 695)=4320,
YLGROPT%NLOEN( 696)=4320,
YLGROPT%NLOEN( 697)=4320,
YLGROPT%NLOEN( 698)=4320,
YLGROPT%NLOEN( 699)=4320,
YLGROPT%NLOEN( 700)=4320,
YLGROPT%NLOEN( 701)=4320,
YLGROPT%NLOEN( 702)=4320,
YLGROPT%NLOEN( 703)=4320,
YLGROPT%NLOEN( 704)=4320,
YLGROPT%NLOEN( 705)=4320,
YLGROPT%NLOEN( 706)=4320,
YLGROPT%NLOEN( 707)=4320,
YLGROPT%NLOEN( 708)=4320,
YLGROPT%NLOEN( 709)=4320,
YLGROPT%NLOEN( 710)=4320,
YLGROPT%NLOEN( 711)=4374,
YLGROPT%NLOEN( 712)=4374,
YLGROPT%NLOEN( 713)=4374,
YLGROPT%NLOEN( 714)=4374,
YLGROPT%NLOEN( 715)=4374,
YLGROPT%NLOEN( 716)=4374,
YLGROPT%NLOEN( 717)=4374,
YLGROPT%NLOEN( 718)=4374,
YLGROPT%NLOEN( 719)=4374,
YLGROPT%NLOEN( 720)=4374,
YLGROPT%NLOEN( 721)=4500,
YLGROPT%NLOEN( 722)=4500,
YLGROPT%NLOEN( 723)=4500,
YLGROPT%NLOEN( 724)=4500,
YLGROPT%NLOEN( 725)=4500,
YLGROPT%NLOEN( 726)=4500,
YLGROPT%NLOEN( 727)=4500,
YLGROPT%NLOEN( 728)=4500,
YLGROPT%NLOEN( 729)=4500,
YLGROPT%NLOEN( 730)=4500,
YLGROPT%NLOEN( 731)=4500,
YLGROPT%NLOEN( 732)=4500,
YLGROPT%NLOEN( 733)=4500,
YLGROPT%NLOEN( 734)=4500,
YLGROPT%NLOEN( 735)=4500,
YLGROPT%NLOEN( 736)=4500,
YLGROPT%NLOEN( 737)=4500,
YLGROPT%NLOEN( 738)=4500,
YLGROPT%NLOEN( 739)=4500,
YLGROPT%NLOEN( 740)=4500,
YLGROPT%NLOEN( 741)=4500,
YLGROPT%NLOEN( 742)=4500,
YLGROPT%NLOEN( 743)=4500,
YLGROPT%NLOEN( 744)=4500,
YLGROPT%NLOEN( 745)=4608,
YLGROPT%NLOEN( 746)=4608,
YLGROPT%NLOEN( 747)=4608,
YLGROPT%NLOEN( 748)=4608,
YLGROPT%NLOEN( 749)=4608,
YLGROPT%NLOEN( 750)=4608,
YLGROPT%NLOEN( 751)=4608,
YLGROPT%NLOEN( 752)=4608,
YLGROPT%NLOEN( 753)=4608,
YLGROPT%NLOEN( 754)=4608,
YLGROPT%NLOEN( 755)=4608,
YLGROPT%NLOEN( 756)=4608,
YLGROPT%NLOEN( 757)=4608,
YLGROPT%NLOEN( 758)=4608,
YLGROPT%NLOEN( 759)=4608,
YLGROPT%NLOEN( 760)=4608,
YLGROPT%NLOEN( 761)=4608,
YLGROPT%NLOEN( 762)=4608,
YLGROPT%NLOEN( 763)=4608,
YLGROPT%NLOEN( 764)=4608,
YLGROPT%NLOEN( 765)=4800,
YLGROPT%NLOEN( 766)=4800,
YLGROPT%NLOEN( 767)=4800,
YLGROPT%NLOEN( 768)=4800,
YLGROPT%NLOEN( 769)=4800,
YLGROPT%NLOEN( 770)=4800,
YLGROPT%NLOEN( 771)=4800,
YLGROPT%NLOEN( 772)=4800,
YLGROPT%NLOEN( 773)=4800,
YLGROPT%NLOEN( 774)=4800,
YLGROPT%NLOEN( 775)=4800,
YLGROPT%NLOEN( 776)=4800,
YLGROPT%NLOEN( 777)=4800,
YLGROPT%NLOEN( 778)=4800,
YLGROPT%NLOEN( 779)=4800,
YLGROPT%NLOEN( 780)=4800,
YLGROPT%NLOEN( 781)=4800,
YLGROPT%NLOEN( 782)=4800,
YLGROPT%NLOEN( 783)=4800,
YLGROPT%NLOEN( 784)=4800,
YLGROPT%NLOEN( 785)=4800,
YLGROPT%NLOEN( 786)=4800,
YLGROPT%NLOEN( 787)=4800,
YLGROPT%NLOEN( 788)=4800,
YLGROPT%NLOEN( 789)=4800,
YLGROPT%NLOEN( 790)=4800,
YLGROPT%NLOEN( 791)=4800,
YLGROPT%NLOEN( 792)=4800,
YLGROPT%NLOEN( 793)=4800,
YLGROPT%NLOEN( 794)=4800,
YLGROPT%NLOEN( 795)=4800,
YLGROPT%NLOEN( 796)=4800,
YLGROPT%NLOEN( 797)=4800,
YLGROPT%NLOEN( 798)=4800,
YLGROPT%NLOEN( 799)=4800,
YLGROPT%NLOEN( 800)=4800,
YLGROPT%NLOEN( 801)=4800,
YLGROPT%NLOEN( 802)=4800,
YLGROPT%NLOEN( 803)=4860,
YLGROPT%NLOEN( 804)=4860,
YLGROPT%NLOEN( 805)=4860,
YLGROPT%NLOEN( 806)=4860,
YLGROPT%NLOEN( 807)=4860,
YLGROPT%NLOEN( 808)=4860,
YLGROPT%NLOEN( 809)=4860,
YLGROPT%NLOEN( 810)=4860,
YLGROPT%NLOEN( 811)=4860,
YLGROPT%NLOEN( 812)=4860,
YLGROPT%NLOEN( 813)=4860,
YLGROPT%NLOEN( 814)=4860,
YLGROPT%NLOEN( 815)=5000,
YLGROPT%NLOEN( 816)=5000,
YLGROPT%NLOEN( 817)=5000,
YLGROPT%NLOEN( 818)=5000,
YLGROPT%NLOEN( 819)=5000,
YLGROPT%NLOEN( 820)=5000,
YLGROPT%NLOEN( 821)=5000,
YLGROPT%NLOEN( 822)=5000,
YLGROPT%NLOEN( 823)=5000,
YLGROPT%NLOEN( 824)=5000,
YLGROPT%NLOEN( 825)=5000,
YLGROPT%NLOEN( 826)=5000,
YLGROPT%NLOEN( 827)=5000,
YLGROPT%NLOEN( 828)=5000,
YLGROPT%NLOEN( 829)=5000,
YLGROPT%NLOEN( 830)=5000,
YLGROPT%NLOEN( 831)=5000,
YLGROPT%NLOEN( 832)=5000,
YLGROPT%NLOEN( 833)=5000,
YLGROPT%NLOEN( 834)=5000,
YLGROPT%NLOEN( 835)=5000,
YLGROPT%NLOEN( 836)=5000,
YLGROPT%NLOEN( 837)=5000,
YLGROPT%NLOEN( 838)=5000,
YLGROPT%NLOEN( 839)=5000,
YLGROPT%NLOEN( 840)=5000,
YLGROPT%NLOEN( 841)=5000,
YLGROPT%NLOEN( 842)=5000,
YLGROPT%NLOEN( 843)=5120,
YLGROPT%NLOEN( 844)=5120,
YLGROPT%NLOEN( 845)=5120,
YLGROPT%NLOEN( 846)=5120,
YLGROPT%NLOEN( 847)=5120,
YLGROPT%NLOEN( 848)=5120,
YLGROPT%NLOEN( 849)=5120,
YLGROPT%NLOEN( 850)=5120,
YLGROPT%NLOEN( 851)=5120,
YLGROPT%NLOEN( 852)=5120,
YLGROPT%NLOEN( 853)=5120,
YLGROPT%NLOEN( 854)=5120,
YLGROPT%NLOEN( 855)=5120,
YLGROPT%NLOEN( 856)=5120,
YLGROPT%NLOEN( 857)=5120,
YLGROPT%NLOEN( 858)=5120,
YLGROPT%NLOEN( 859)=5120,
YLGROPT%NLOEN( 860)=5120,
YLGROPT%NLOEN( 861)=5120,
YLGROPT%NLOEN( 862)=5120,
YLGROPT%NLOEN( 863)=5120,
YLGROPT%NLOEN( 864)=5120,
YLGROPT%NLOEN( 865)=5120,
YLGROPT%NLOEN( 866)=5120,
YLGROPT%NLOEN( 867)=5184,
YLGROPT%NLOEN( 868)=5184,
YLGROPT%NLOEN( 869)=5184,
YLGROPT%NLOEN( 870)=5184,
YLGROPT%NLOEN( 871)=5184,
YLGROPT%NLOEN( 872)=5184,
YLGROPT%NLOEN( 873)=5184,
YLGROPT%NLOEN( 874)=5184,
YLGROPT%NLOEN( 875)=5184,
YLGROPT%NLOEN( 876)=5184,
YLGROPT%NLOEN( 877)=5184,
YLGROPT%NLOEN( 878)=5184,
YLGROPT%NLOEN( 879)=5184,
YLGROPT%NLOEN( 880)=5400,
YLGROPT%NLOEN( 881)=5400,
YLGROPT%NLOEN( 882)=5400,
YLGROPT%NLOEN( 883)=5400,
YLGROPT%NLOEN( 884)=5400,
YLGROPT%NLOEN( 885)=5400,
YLGROPT%NLOEN( 886)=5400,
YLGROPT%NLOEN( 887)=5400,
YLGROPT%NLOEN( 888)=5400,
YLGROPT%NLOEN( 889)=5400,
YLGROPT%NLOEN( 890)=5400,
YLGROPT%NLOEN( 891)=5400,
YLGROPT%NLOEN( 892)=5400,
YLGROPT%NLOEN( 893)=5400,
YLGROPT%NLOEN( 894)=5400,
YLGROPT%NLOEN( 895)=5400,
YLGROPT%NLOEN( 896)=5400,
YLGROPT%NLOEN( 897)=5400,
YLGROPT%NLOEN( 898)=5400,
YLGROPT%NLOEN( 899)=5400,
YLGROPT%NLOEN( 900)=5400,
YLGROPT%NLOEN( 901)=5400,
YLGROPT%NLOEN( 902)=5400,
YLGROPT%NLOEN( 903)=5400,
YLGROPT%NLOEN( 904)=5400,
YLGROPT%NLOEN( 905)=5400,
YLGROPT%NLOEN( 906)=5400,
YLGROPT%NLOEN( 907)=5400,
YLGROPT%NLOEN( 908)=5400,
YLGROPT%NLOEN( 909)=5400,
YLGROPT%NLOEN( 910)=5400,
YLGROPT%NLOEN( 911)=5400,
YLGROPT%NLOEN( 912)=5400,
YLGROPT%NLOEN( 913)=5400,
YLGROPT%NLOEN( 914)=5400,
YLGROPT%NLOEN( 915)=5400,
YLGROPT%NLOEN( 916)=5400,
YLGROPT%NLOEN( 917)=5400,
YLGROPT%NLOEN( 918)=5400,
YLGROPT%NLOEN( 919)=5400,
YLGROPT%NLOEN( 920)=5400,
YLGROPT%NLOEN( 921)=5400,
YLGROPT%NLOEN( 922)=5400,
YLGROPT%NLOEN( 923)=5400,
YLGROPT%NLOEN( 924)=5400,
YLGROPT%NLOEN( 925)=5760,
YLGROPT%NLOEN( 926)=5760,
YLGROPT%NLOEN( 927)=5760,
YLGROPT%NLOEN( 928)=5760,
YLGROPT%NLOEN( 929)=5760,
YLGROPT%NLOEN( 930)=5760,
YLGROPT%NLOEN( 931)=5760,
YLGROPT%NLOEN( 932)=5760,
YLGROPT%NLOEN( 933)=5760,
YLGROPT%NLOEN( 934)=5760,
YLGROPT%NLOEN( 935)=5760,
YLGROPT%NLOEN( 936)=5760,
YLGROPT%NLOEN( 937)=5760,
YLGROPT%NLOEN( 938)=5760,
YLGROPT%NLOEN( 939)=5760,
YLGROPT%NLOEN( 940)=5760,
YLGROPT%NLOEN( 941)=5760,
YLGROPT%NLOEN( 942)=5760,
YLGROPT%NLOEN( 943)=5760,
YLGROPT%NLOEN( 944)=5760,
YLGROPT%NLOEN( 945)=5760,
YLGROPT%NLOEN( 946)=5760,
YLGROPT%NLOEN( 947)=5760,
YLGROPT%NLOEN( 948)=5760,
YLGROPT%NLOEN( 949)=5760,
YLGROPT%NLOEN( 950)=5760,
YLGROPT%NLOEN( 951)=5760,
YLGROPT%NLOEN( 952)=5760,
YLGROPT%NLOEN( 953)=5760,
YLGROPT%NLOEN( 954)=5760,
YLGROPT%NLOEN( 955)=5760,
YLGROPT%NLOEN( 956)=5760,
YLGROPT%NLOEN( 957)=5760,
YLGROPT%NLOEN( 958)=5760,
YLGROPT%NLOEN( 959)=5760,
YLGROPT%NLOEN( 960)=5760,
YLGROPT%NLOEN( 961)=5760,
YLGROPT%NLOEN( 962)=5760,
YLGROPT%NLOEN( 963)=5760,
YLGROPT%NLOEN( 964)=5760,
YLGROPT%NLOEN( 965)=5760,
YLGROPT%NLOEN( 966)=5760,
YLGROPT%NLOEN( 967)=5760,
YLGROPT%NLOEN( 968)=5760,
YLGROPT%NLOEN( 969)=5760,
YLGROPT%NLOEN( 970)=5760,
YLGROPT%NLOEN( 971)=5760,
YLGROPT%NLOEN( 972)=5760,
YLGROPT%NLOEN( 973)=5760,
YLGROPT%NLOEN( 974)=5760,
YLGROPT%NLOEN( 975)=5760,
YLGROPT%NLOEN( 976)=5760,
YLGROPT%NLOEN( 977)=5760,
YLGROPT%NLOEN( 978)=5760,
YLGROPT%NLOEN( 979)=5760,
YLGROPT%NLOEN( 980)=5760,
YLGROPT%NLOEN( 981)=5760,
YLGROPT%NLOEN( 982)=5760,
YLGROPT%NLOEN( 983)=5760,
YLGROPT%NLOEN( 984)=5760,
YLGROPT%NLOEN( 985)=5760,
YLGROPT%NLOEN( 986)=5760,
YLGROPT%NLOEN( 987)=5760,
YLGROPT%NLOEN( 988)=5760,
YLGROPT%NLOEN( 989)=5760,
YLGROPT%NLOEN( 990)=5760,
YLGROPT%NLOEN( 991)=5760,
YLGROPT%NLOEN( 992)=5760,
YLGROPT%NLOEN( 993)=5760,
YLGROPT%NLOEN( 994)=5760,
YLGROPT%NLOEN( 995)=5760,
YLGROPT%NLOEN( 996)=5760,
YLGROPT%NLOEN( 997)=5760,
YLGROPT%NLOEN( 998)=5760,
YLGROPT%NLOEN( 999)=5760,
YLGROPT%NLOEN(1000)=5760,
YLGROPT%NLOEN(1001)=5760,
YLGROPT%NLOEN(1002)=5760,
YLGROPT%NLOEN(1003)=5760,
YLGROPT%NLOEN(1004)=5832,
YLGROPT%NLOEN(1005)=5832,
YLGROPT%NLOEN(1006)=5832,
YLGROPT%NLOEN(1007)=5832,
YLGROPT%NLOEN(1008)=5832,
YLGROPT%NLOEN(1009)=5832,
YLGROPT%NLOEN(1010)=5832,
YLGROPT%NLOEN(1011)=5832,
YLGROPT%NLOEN(1012)=5832,
YLGROPT%NLOEN(1013)=5832,
YLGROPT%NLOEN(1014)=5832,
YLGROPT%NLOEN(1015)=5832,
YLGROPT%NLOEN(1016)=5832,
YLGROPT%NLOEN(1017)=5832,
YLGROPT%NLOEN(1018)=5832,
YLGROPT%NLOEN(1019)=5832,
YLGROPT%NLOEN(1020)=5832,
YLGROPT%NLOEN(1021)=6000,
YLGROPT%NLOEN(1022)=6000,
YLGROPT%NLOEN(1023)=6000,
YLGROPT%NLOEN(1024)=6000,
YLGROPT%NLOEN(1025)=6000,
YLGROPT%NLOEN(1026)=6000,
YLGROPT%NLOEN(1027)=6000,
YLGROPT%NLOEN(1028)=6000,
YLGROPT%NLOEN(1029)=6000,
YLGROPT%NLOEN(1030)=6000,
YLGROPT%NLOEN(1031)=6000,
YLGROPT%NLOEN(1032)=6000,
YLGROPT%NLOEN(1033)=6000,
YLGROPT%NLOEN(1034)=6000,
YLGROPT%NLOEN(1035)=6000,
YLGROPT%NLOEN(1036)=6000,
YLGROPT%NLOEN(1037)=6000,
YLGROPT%NLOEN(1038)=6000,
YLGROPT%NLOEN(1039)=6000,
YLGROPT%NLOEN(1040)=6000,
YLGROPT%NLOEN(1041)=6000,
YLGROPT%NLOEN(1042)=6000,
YLGROPT%NLOEN(1043)=6000,
YLGROPT%NLOEN(1044)=6000,
YLGROPT%NLOEN(1045)=6000,
YLGROPT%NLOEN(1046)=6000,
YLGROPT%NLOEN(1047)=6000,
YLGROPT%NLOEN(1048)=6000,
YLGROPT%NLOEN(1049)=6000,
YLGROPT%NLOEN(1050)=6000,
YLGROPT%NLOEN(1051)=6000,
YLGROPT%NLOEN(1052)=6000,
YLGROPT%NLOEN(1053)=6000,
YLGROPT%NLOEN(1054)=6000,
YLGROPT%NLOEN(1055)=6000,
YLGROPT%NLOEN(1056)=6000,
YLGROPT%NLOEN(1057)=6000,
YLGROPT%NLOEN(1058)=6000,
YLGROPT%NLOEN(1059)=6000,
YLGROPT%NLOEN(1060)=6144,
YLGROPT%NLOEN(1061)=6144,
YLGROPT%NLOEN(1062)=6144,
YLGROPT%NLOEN(1063)=6144,
YLGROPT%NLOEN(1064)=6144,
YLGROPT%NLOEN(1065)=6144,
YLGROPT%NLOEN(1066)=6144,
YLGROPT%NLOEN(1067)=6144,
YLGROPT%NLOEN(1068)=6144,
YLGROPT%NLOEN(1069)=6144,
YLGROPT%NLOEN(1070)=6144,
YLGROPT%NLOEN(1071)=6144,
YLGROPT%NLOEN(1072)=6144,
YLGROPT%NLOEN(1073)=6144,
YLGROPT%NLOEN(1074)=6144,
YLGROPT%NLOEN(1075)=6144,
YLGROPT%NLOEN(1076)=6144,
YLGROPT%NLOEN(1077)=6144,
YLGROPT%NLOEN(1078)=6144,
YLGROPT%NLOEN(1079)=6144,
YLGROPT%NLOEN(1080)=6144,
YLGROPT%NLOEN(1081)=6144,
YLGROPT%NLOEN(1082)=6144,
YLGROPT%NLOEN(1083)=6144,
YLGROPT%NLOEN(1084)=6144,
YLGROPT%NLOEN(1085)=6144,
YLGROPT%NLOEN(1086)=6144,
YLGROPT%NLOEN(1087)=6144,
YLGROPT%NLOEN(1088)=6144,
YLGROPT%NLOEN(1089)=6144,
YLGROPT%NLOEN(1090)=6144,
YLGROPT%NLOEN(1091)=6144,
YLGROPT%NLOEN(1092)=6144,
YLGROPT%NLOEN(1093)=6144,
YLGROPT%NLOEN(1094)=6144,
YLGROPT%NLOEN(1095)=6250,
YLGROPT%NLOEN(1096)=6250,
YLGROPT%NLOEN(1097)=6250,
YLGROPT%NLOEN(1098)=6250,
YLGROPT%NLOEN(1099)=6250,
YLGROPT%NLOEN(1100)=6250,
YLGROPT%NLOEN(1101)=6250,
YLGROPT%NLOEN(1102)=6250,
YLGROPT%NLOEN(1103)=6250,
YLGROPT%NLOEN(1104)=6250,
YLGROPT%NLOEN(1105)=6250,
YLGROPT%NLOEN(1106)=6250,
YLGROPT%NLOEN(1107)=6250,
YLGROPT%NLOEN(1108)=6250,
YLGROPT%NLOEN(1109)=6250,
YLGROPT%NLOEN(1110)=6250,
YLGROPT%NLOEN(1111)=6250,
YLGROPT%NLOEN(1112)=6250,
YLGROPT%NLOEN(1113)=6250,
YLGROPT%NLOEN(1114)=6250,
YLGROPT%NLOEN(1115)=6250,
YLGROPT%NLOEN(1116)=6250,
YLGROPT%NLOEN(1117)=6250,
YLGROPT%NLOEN(1118)=6250,
YLGROPT%NLOEN(1119)=6250,
YLGROPT%NLOEN(1120)=6250,
YLGROPT%NLOEN(1121)=6250,
YLGROPT%NLOEN(1122)=6400,
YLGROPT%NLOEN(1123)=6400,
YLGROPT%NLOEN(1124)=6400,
YLGROPT%NLOEN(1125)=6400,
YLGROPT%NLOEN(1126)=6400,
YLGROPT%NLOEN(1127)=6400,
YLGROPT%NLOEN(1128)=6400,
YLGROPT%NLOEN(1129)=6400,
YLGROPT%NLOEN(1130)=6400,
YLGROPT%NLOEN(1131)=6400,
YLGROPT%NLOEN(1132)=6400,
YLGROPT%NLOEN(1133)=6400,
YLGROPT%NLOEN(1134)=6400,
YLGROPT%NLOEN(1135)=6400,
YLGROPT%NLOEN(1136)=6400,
YLGROPT%NLOEN(1137)=6400,
YLGROPT%NLOEN(1138)=6400,
YLGROPT%NLOEN(1139)=6400,
YLGROPT%NLOEN(1140)=6400,
YLGROPT%NLOEN(1141)=6400,
YLGROPT%NLOEN(1142)=6400,
YLGROPT%NLOEN(1143)=6400,
YLGROPT%NLOEN(1144)=6400,
YLGROPT%NLOEN(1145)=6400,
YLGROPT%NLOEN(1146)=6400,
YLGROPT%NLOEN(1147)=6400,
YLGROPT%NLOEN(1148)=6400,
YLGROPT%NLOEN(1149)=6400,
YLGROPT%NLOEN(1150)=6400,
YLGROPT%NLOEN(1151)=6400,
YLGROPT%NLOEN(1152)=6400,
YLGROPT%NLOEN(1153)=6400,