&NAMGRID
YLGROPT%NLOEN(   1)=18,
YLGROPT%NLOEN(   2)=30,
YLGROPT%NLOEN(   3)=32,
YLGROPT%NLOEN(   4)=40,
YLGROPT%NLOEN(   5)=48,
YLGROPT%NLOEN(   6)=54,
YLGROPT%NLOEN(   7)=64,
YLGROPT%NLOEN(   8)=72,
YLGROPT%NLOEN(   9)=80,
YLGROPT%NLOEN(  10)=90,
YLGROPT%NLOEN(  11)=90,
YLGROPT%NLOEN(  12)=96,
YLGROPT%NLOEN(  13)=108,
YLGROPT%NLOEN(  14)=120,
YLGROPT%NLOEN(  15)=120,
YLGROPT%NLOEN(  16)=128,
YLGROPT%NLOEN(  17)=144,
YLGROPT%NLOEN(  18)=144,
YLGROPT%NLOEN(  19)=150,
YLGROPT%NLOEN(  20)=160,
YLGROPT%NLOEN(  21)=160,
YLGROPT%NLOEN(  22)=180,
YLGROPT%NLOEN(  23)=180,
YLGROPT%NLOEN(  24)=180,
YLGROPT%NLOEN(  25)=192,
YLGROPT%NLOEN(  26)=192,
YLGROPT%NLOEN(  27)=200,
YLGROPT%NLOEN(  28)=216,
YLGROPT%NLOEN(  29)=216,
YLGROPT%NLOEN(  30)=240,
YLGROPT%NLOEN(  31)=240,
YLGROPT%NLOEN(  32)=240,
YLGROPT%NLOEN(  33)=240,
YLGROPT%NLOEN(  34)=250,
YLGROPT%NLOEN(  35)=250,
YLGROPT%NLOEN(  36)=256,
YLGROPT%NLOEN(  37)=270,
YLGROPT%NLOEN(  38)=288,
YLGROPT%NLOEN(  39)=288,
YLGROPT%NLOEN(  40)=288,
YLGROPT%NLOEN(  41)=300,
YLGROPT%NLOEN(  42)=300,
YLGROPT%NLOEN(  43)=320,
YLGROPT%NLOEN(  44)=320,
YLGROPT%NLOEN(  45)=320,
YLGROPT%NLOEN(  46)=324,
YLGROPT%NLOEN(  47)=360,
YLGROPT%NLOEN(  48)=360,
YLGROPT%NLOEN(  49)=360,
YLGROPT%NLOEN(  50)=360,
YLGROPT%NLOEN(  51)=360,
YLGROPT%NLOEN(  52)=384,
YLGROPT%NLOEN(  53)=384,
YLGROPT%NLOEN(  54)=384,
YLGROPT%NLOEN(  55)=384,
YLGROPT%NLOEN(  56)=400,
YLGROPT%NLOEN(  57)=400,
YLGROPT%NLOEN(  58)=432,
YLGROPT%NLOEN(  59)=432,
YLGROPT%NLOEN(  60)=432,
YLGROPT%NLOEN(  61)=432,
YLGROPT%NLOEN(  62)=432,
YLGROPT%NLOEN(  63)=450,
YLGROPT%NLOEN(  64)=450,
YLGROPT%NLOEN(  65)=450,
YLGROPT%NLOEN(  66)=480,
YLGROPT%NLOEN(  67)=480,
YLGROPT%NLOEN(  68)=480,
YLGROPT%NLOEN(  69)=480,
YLGROPT%NLOEN(  70)=486,
YLGROPT%NLOEN(  71)=500,
YLGROPT%NLOEN(  72)=500,
YLGROPT%NLOEN(  73)=500,
YLGROPT%NLOEN(  74)=512,
YLGROPT%NLOEN(  75)=512,
YLGROPT%NLOEN(  76)=540,
YLGROPT%NLOEN(  77)=540,
YLGROPT%NLOEN(  78)=540,
YLGROPT%NLOEN(  79)=540,
YLGROPT%NLOEN(  80)=576,
YLGROPT%NLOEN(  81)=576,
YLGROPT%NLOEN(  82)=576,
YLGROPT%NLOEN(  83)=576,
YLGROPT%NLOEN(  84)=576,
YLGROPT%NLOEN(  85)=600,
YLGROPT%NLOEN(  86)=600,
YLGROPT%NLOEN(  87)=600,
YLGROPT%NLOEN(  88)=600,
YLGROPT%NLOEN(  89)=640,
YLGROPT%NLOEN(  90)=640,
YLGROPT%NLOEN(  91)=640,
YLGROPT%NLOEN(  92)=640,
YLGROPT%NLOEN(  93)=640,
YLGROPT%NLOEN(  94)=640,
YLGROPT%NLOEN(  95)=640,
YLGROPT%NLOEN(  96)=648,
YLGROPT%NLOEN(  97)=720,
YLGROPT%NLOEN(  98)=720,
YLGROPT%NLOEN(  99)=720,
YLGROPT%NLOEN( 100)=720,
YLGROPT%NLOEN( 101)=720,
YLGROPT%NLOEN( 102)=720,
YLGROPT%NLOEN( 103)=720,
YLGROPT%NLOEN( 104)=720,
YLGROPT%NLOEN( 105)=720,
YLGROPT%NLOEN( 106)=720,
YLGROPT%NLOEN( 107)=720,
YLGROPT%NLOEN( 108)=750,
YLGROPT%NLOEN( 109)=750,
YLGROPT%NLOEN( 110)=750,
YLGROPT%NLOEN( 111)=750,
YLGROPT%NLOEN( 112)=750,
YLGROPT%NLOEN( 113)=768,
YLGROPT%NLOEN( 114)=768,
YLGROPT%NLOEN( 115)=768,
YLGROPT%NLOEN( 116)=800,
YLGROPT%NLOEN( 117)=800,
YLGROPT%NLOEN( 118)=800,
YLGROPT%NLOEN( 119)=800,
YLGROPT%NLOEN( 120)=800,
YLGROPT%NLOEN( 121)=810,
YLGROPT%NLOEN( 122)=864,
YLGROPT%NLOEN( 123)=864,
YLGROPT%NLOEN( 124)=864,
YLGROPT%NLOEN( 125)=864,
YLGROPT%NLOEN( 126)=864,
YLGROPT%NLOEN( 127)=864,
YLGROPT%NLOEN( 128)=864,
YLGROPT%NLOEN( 129)=864,
YLGROPT%NLOEN( 130)=864,
YLGROPT%NLOEN( 131)=900,
YLGROPT%NLOEN( 132)=900,
YLGROPT%NLOEN( 133)=900,
YLGROPT%NLOEN( 134)=900,
YLGROPT%NLOEN( 135)=900,
YLGROPT%NLOEN( 136)=900,
YLGROPT%NLOEN( 137)=960,
YLGROPT%NLOEN( 138)=960,
YLGROPT%NLOEN( 139)=960,
YLGROPT%NLOEN( 140)=960,
YLGROPT%NLOEN( 141)=960,
YLGROPT%NLOEN( 142)=960,
YLGROPT%NLOEN( 143)=960,
YLGROPT%NLOEN( 144)=960,
YLGROPT%NLOEN( 145)=960,
YLGROPT%NLOEN( 146)=972,
YLGROPT%NLOEN( 147)=972,
YLGROPT%NLOEN( 148)=1000,
YLGROPT%NLOEN( 149)=1000,
YLGROPT%NLOEN( 150)=1000,
YLGROPT%NLOEN( 151)=1000,
YLGROPT%NLOEN( 152)=1000,
YLGROPT%NLOEN( 153)=1024,
YLGROPT%NLOEN( 154)=1024,
YLGROPT%NLOEN( 155)=1024,
YLGROPT%NLOEN( 156)=1024,
YLGROPT%NLOEN( 157)=1080,
YLGROPT%NLOEN( 158)=1080,
YLGROPT%NLOEN( 159)=1080,
YLGROPT%NLOEN( 160)=1080,
YLGROPT%NLOEN( 161)=1080,
YLGROPT%NLOEN( 162)=1080,
YLGROPT%NLOEN( 163)=1080,
YLGROPT%NLOEN( 164)=1080,
YLGROPT%NLOEN( 165)=1080,
YLGROPT%NLOEN( 166)=1152,
YLGROPT%NLOEN( 167)=1152,
YLGROPT%NLOEN( 168)=1152,
YLGROPT%NLOEN( 169)=1152,
YLGROPT%NLOEN( 170)=1152,
YLGROPT%NLOEN( 171)=1152,
YLGROPT%NLOEN( 172)=1152,
YLGROPT%NLOEN( 173)=1152,
YLGROPT%NLOEN( 174)=1152,
YLGROPT%NLOEN( 175)=1152,
YLGROPT%NLOEN( 176)=1152,
YLGROPT%NLOEN( 177)=1200,
YLGROPT%NLOEN( 178)=1200,
YLGROPT%NLOEN( 179)=1200,
YLGROPT%NLOEN( 180)=1200,
YLGROPT%NLOEN( 181)=1200,
YLGROPT%NLOEN( 182)=1200,
YLGROPT%NLOEN( 183)=1200,
YLGROPT%NLOEN( 184)=1200,
YLGROPT%NLOEN( 185)=1250,
YLGROPT%NLOEN( 186)=1250,
YLGROPT%NLOEN( 187)=1250,
YLGROPT%NLOEN( 188)=1250,
YLGROPT%NLOEN( 189)=1250,
YLGROPT%NLOEN( 190)=1250,
YLGROPT%NLOEN( 191)=1250,
YLGROPT%NLOEN( 192)=1250,
YLGROPT%NLOEN( 193)=1250,
YLGROPT%NLOEN( 194)=1280,
YLGROPT%NLOEN( 195)=1280,
YLGROPT%NLOEN( 196)=1280,
YLGROPT%NLOEN( 197)=1280,
YLGROPT%NLOEN( 198)=1280,
YLGROPT%NLOEN( 199)=1296,
YLGROPT%NLOEN( 200)=1296,
YLGROPT%NLOEN( 201)=1350,
YLGROPT%NLOEN( 202)=1350,
YLGROPT%NLOEN( 203)=1350,
YLGROPT%NLOEN( 204)=1350,
YLGROPT%NLOEN( 205)=1350,
YLGROPT%NLOEN( 206)=1350,
YLGROPT%NLOEN( 207)=1350,
YLGROPT%NLOEN( 208)=1350,
YLGROPT%NLOEN( 209)=1350,
YLGROPT%NLOEN( 210)=1440,
YLGROPT%NLOEN( 211)=1440,
YLGROPT%NLOEN( 212)=1440,
YLGROPT%NLOEN( 213)=1440,
YLGROPT%NLOEN( 214)=1440,
YLGROPT%NLOEN( 215)=1440,
YLGROPT%NLOEN( 216)=1440,
YLGROPT%NLOEN( 217)=1440,
YLGROPT%NLOEN( 218)=1440,
YLGROPT%NLOEN( 219)=1440,
YLGROPT%NLOEN( 220)=1440,
YLGROPT%NLOEN( 221)=1440,
YLGROPT%NLOEN( 222)=1440,
YLGROPT%NLOEN( 223)=1440,
YLGROPT%NLOEN( 224)=1440,
YLGROPT%NLOEN( 225)=1458,
YLGROPT%NLOEN( 226)=1458,
YLGROPT%NLOEN( 227)=1458,
YLGROPT%NLOEN( 228)=1458,
YLGROPT%NLOEN( 229)=1500,
YLGROPT%NLOEN( 230)=1500,
YLGROPT%NLOEN( 231)=1500,
YLGROPT%NLOEN( 232)=1500,
YLGROPT%NLOEN( 233)=1500,
YLGROPT%NLOEN( 234)=1500,
YLGROPT%NLOEN( 235)=1500,
YLGROPT%NLOEN( 236)=1536,
YLGROPT%NLOEN( 237)=1536,
YLGROPT%NLOEN( 238)=1536,
YLGROPT%NLOEN( 239)=1536,
YLGROPT%NLOEN( 240)=1536,
YLGROPT%NLOEN( 241)=1536,
YLGROPT%NLOEN( 242)=1600,
YLGROPT%NLOEN( 243)=1600,
YLGROPT%NLOEN( 244)=1600,
YLGROPT%NLOEN( 245)=1600,
YLGROPT%NLOEN( 246)=1600,
YLGROPT%NLOEN( 247)=1600,
YLGROPT%NLOEN( 248)=1600,
YLGROPT%NLOEN( 249)=1600,
YLGROPT%NLOEN( 250)=1600,
YLGROPT%NLOEN( 251)=1600,
YLGROPT%NLOEN( 252)=1600,
YLGROPT%NLOEN( 253)=1620,
YLGROPT%NLOEN( 254)=1620,
YLGROPT%NLOEN( 255)=1620,
YLGROPT%NLOEN( 256)=1728,
YLGROPT%NLOEN( 257)=1728,
YLGROPT%NLOEN( 258)=1728,
YLGROPT%NLOEN( 259)=1728,
YLGROPT%NLOEN( 260)=1728,
YLGROPT%NLOEN( 261)=1728,
YLGROPT%NLOEN( 262)=1728,
YLGROPT%NLOEN( 263)=1728,
YLGROPT%NLOEN( 264)=1728,
YLGROPT%NLOEN( 265)=1728,
YLGROPT%NLOEN( 266)=1728,
YLGROPT%NLOEN( 267)=1728,
YLGROPT%NLOEN( 268)=1728,
YLGROPT%NLOEN( 269)=1728,
YLGROPT%NLOEN( 270)=1728,
YLGROPT%NLOEN( 271)=1728,
YLGROPT%NLOEN( 272)=1728,
YLGROPT%NLOEN( 273)=1728,
YLGROPT%NLOEN( 274)=1728,
YLGROPT%NLOEN( 275)=1800,
YLGROPT%NLOEN( 276)=1800,
YLGROPT%NLOEN( 277)=1800,
YLGROPT%NLOEN( 278)=1800,
YLGROPT%NLOEN( 279)=1800,
YLGROPT%NLOEN( 280)=1800,
YLGROPT%NLOEN( 281)=1800,
YLGROPT%NLOEN( 282)=1800,
YLGROPT%NLOEN( 283)=1800,
YLGROPT%NLOEN( 284)=1800,
YLGROPT%NLOEN( 285)=1800,
YLGROPT%NLOEN( 286)=1800,
YLGROPT%NLOEN( 287)=1800,
YLGROPT%NLOEN( 288)=1920,
YLGROPT%NLOEN( 289)=1920,
YLGROPT%NLOEN( 290)=1920,
YLGROPT%NLOEN( 291)=1920,
YLGROPT%NLOEN( 292)=1920,
YLGROPT%NLOEN( 293)=1920,
YLGROPT%NLOEN( 294)=1920,
YLGROPT%NLOEN( 295)=1920,
YLGROPT%NLOEN( 296)=1920,
YLGROPT%NLOEN( 297)=1920,
YLGROPT%NLOEN( 298)=1920,
YLGROPT%NLOEN( 299)=1920,
YLGROPT%NLOEN( 300)=1920,
YLGROPT%NLOEN( 301)=1920,
YLGROPT%NLOEN( 302)=1920,
YLGROPT%NLOEN( 303)=1920,
YLGROPT%NLOEN( 304)=1920,
YLGROPT%NLOEN( 305)=1920,
YLGROPT%NLOEN( 306)=1920,
YLGROPT%NLOEN( 307)=1920,
YLGROPT%NLOEN( 308)=1920,
YLGROPT%NLOEN( 309)=1920,
YLGROPT%NLOEN( 310)=1944,
YLGROPT%NLOEN( 311)=1944,
YLGROPT%NLOEN( 312)=1944,
YLGROPT%NLOEN( 313)=1944,
YLGROPT%NLOEN( 314)=1944,
YLGROPT%NLOEN( 315)=2000,
YLGROPT%NLOEN( 316)=2000,
YLGROPT%NLOEN( 317)=2000,
YLGROPT%NLOEN( 318)=2000,
YLGROPT%NLOEN( 319)=2000,
YLGROPT%NLOEN( 320)=2000,
YLGROPT%NLOEN( 321)=2000,
YLGROPT%NLOEN( 322)=2000,
YLGROPT%NLOEN( 323)=2000,
YLGROPT%NLOEN( 324)=2000,
YLGROPT%NLOEN( 325)=2048,
YLGROPT%NLOEN( 326)=2048,
YLGROPT%NLOEN( 327)=2048,
YLGROPT%NLOEN( 328)=2048,
YLGROPT%NLOEN( 329)=2048,
YLGROPT%NLOEN( 330)=2048,
YLGROPT%NLOEN( 331)=2048,
YLGROPT%NLOEN( 332)=2048,
YLGROPT%NLOEN( 333)=2048,
YLGROPT%NLOEN( 334)=2160,
YLGROPT%NLOEN( 335)=2160,
YLGROPT%NLOEN( 336)=2160,
YLGROPT%NLOEN( 337)=2160,
YLGROPT%NLOEN( 338)=2160,
YLGROPT%NLOEN( 339)=2160,
YLGROPT%NLOEN( 340)=2160,
YLGROPT%NLOEN( 341)=2160,
YLGROPT%NLOEN( 342)=2160,
YLGROPT%NLOEN( 343)=2160,
YLGROPT%NLOEN( 344)=2160,
YLGROPT%NLOEN( 345)=2160,
YLGROPT%NLOEN( 346)=2160,
YLGROPT%NLOEN( 347)=2160,
YLGROPT%NLOEN( 348)=2160,
YLGROPT%NLOEN( 349)=2160,
YLGROPT%NLOEN( 350)=2160,
YLGROPT%NLOEN( 351)=2160,
YLGROPT%NLOEN( 352)=2160,
YLGROPT%NLOEN( 353)=2160,
YLGROPT%NLOEN( 354)=2160,
YLGROPT%NLOEN( 355)=2160,
YLGROPT%NLOEN( 356)=2250,
YLGROPT%NLOEN( 357)=2250,
YLGROPT%NLOEN( 358)=2250,
YLGROPT%NLOEN( 359)=2250,
YLGROPT%NLOEN( 360)=2250,
YLGROPT%NLOEN( 361)=2250,
YLGROPT%NLOEN( 362)=2250,
YLGROPT%NLOEN( 363)=2250,
YLGROPT%NLOEN( 364)=2250,
YLGROPT%NLOEN( 365)=2250,
YLGROPT%NLOEN( 366)=2250,
YLGROPT%NLOEN( 367)=2250,
YLGROPT%NLOEN( 368)=2250,
YLGROPT%NLOEN( 369)=2250,
YLGROPT%NLOEN( 370)=2250,
YLGROPT%NLOEN( 371)=2250,
YLGROPT%NLOEN( 372)=2250,
YLGROPT%NLOEN( 373)=2304,
YLGROPT%NLOEN( 374)=2304,
YLGROPT%NLOEN( 375)=2304,
YLGROPT%NLOEN( 376)=2304,
YLGROPT%NLOEN( 377)=2304,
YLGROPT%NLOEN( 378)=2304,
YLGROPT%NLOEN( 379)=2304,
YLGROPT%NLOEN( 380)=2304,
YLGROPT%NLOEN( 381)=2304,
YLGROPT%NLOEN( 382)=2304,
YLGROPT%NLOEN( 383)=2304,
YLGROPT%NLOEN( 384)=2400,
YLGROPT%NLOEN( 385)=2400,
YLGROPT%NLOEN( 386)=2400,
YLGROPT%NLOEN( 387)=2400,
YLGROPT%NLOEN( 388)=2400,
YLGROPT%NLOEN( 389)=2400,
YLGROPT%NLOEN( 390)=2400,
YLGROPT%NLOEN( 391)=2400,
YLGROPT%NLOEN( 392)=2400,
YLGROPT%NLOEN( 393)=2400,
YLGROPT%NLOEN( 394)=2400,
YLGROPT%NLOEN( 395)=2400,
YLGROPT%NLOEN( 396)=2400,
YLGROPT%NLOEN( 397)=2400,
YLGROPT%NLOEN( 398)=2400,
YLGROPT%NLOEN( 399)=2400,
YLGROPT%NLOEN( 400)=2400,
YLGROPT%NLOEN( 401)=2400,
YLGROPT%NLOEN( 402)=2400,
YLGROPT%NLOEN( 403)=2400,
YLGROPT%NLOEN( 404)=2430,
YLGROPT%NLOEN( 405)=2430,
YLGROPT%NLOEN( 406)=2430,
YLGROPT%NLOEN( 407)=2430,
YLGROPT%NLOEN( 408)=2430,
YLGROPT%NLOEN( 409)=2430,
YLGROPT%NLOEN( 410)=2500,
YLGROPT%NLOEN( 411)=2500,
YLGROPT%NLOEN( 412)=2500,
YLGROPT%NLOEN( 413)=2500,
YLGROPT%NLOEN( 414)=2500,
YLGROPT%NLOEN( 415)=2500,
YLGROPT%NLOEN( 416)=2500,
YLGROPT%NLOEN( 417)=2500,
YLGROPT%NLOEN( 418)=2500,
YLGROPT%NLOEN( 419)=2500,
YLGROPT%NLOEN( 420)=2500,
YLGROPT%NLOEN( 421)=2500,
YLGROPT%NLOEN( 422)=2500,
YLGROPT%NLOEN( 423)=2500,
YLGROPT%NLOEN( 424)=2500,
YLGROPT%NLOEN( 425)=2500,
YLGROPT%NLOEN( 426)=2560,
YLGROPT%NLOEN( 427)=2560,
YLGROPT%NLOEN( 428)=2560,
YLGROPT%NLOEN( 429)=2560,
YLGROPT%NLOEN( 430)=2560,
YLGROPT%NLOEN( 431)=2560,
YLGROPT%NLOEN( 432)=2560,
YLGROPT%NLOEN( 433)=2560,
YLGROPT%NLOEN( 434)=2560,
YLGROPT%NLOEN( 435)=2560,
YLGROPT%NLOEN( 436)=2560,
YLGROPT%NLOEN( 437)=2560,
YLGROPT%NLOEN( 438)=2560,
YLGROPT%NLOEN( 439)=2592,
YLGROPT%NLOEN( 440)=2592,
YLGROPT%NLOEN( 441)=2592,
YLGROPT%NLOEN( 442)=2592,
YLGROPT%NLOEN( 443)=2592,
YLGROPT%NLOEN( 444)=2592,
YLGROPT%NLOEN( 445)=2592,
YLGROPT%NLOEN( 446)=2700,
YLGROPT%NLOEN( 447)=2700,
YLGROPT%NLOEN( 448)=2700,
YLGROPT%NLOEN( 449)=2700,
YLGROPT%NLOEN( 450)=2700,
YLGROPT%NLOEN( 451)=2700,
YLGROPT%NLOEN( 452)=2700,
YLGROPT%NLOEN( 453)=2700,
YLGROPT%NLOEN( 454)=2700,
YLGROPT%NLOEN( 455)=2700,
YLGROPT%NLOEN( 456)=2700,
YLGROPT%NLOEN( 457)=2700,
YLGROPT%NLOEN( 458)=2700,
YLGROPT%NLOEN( 459)=2700,
YLGROPT%NLOEN( 460)=2700,
YLGROPT%NLOEN( 461)=2700,
YLGROPT%NLOEN( 462)=2700,
YLGROPT%NLOEN( 463)=2700,
YLGROPT%NLOEN( 464)=2700,
YLGROPT%NLOEN( 465)=2700,
YLGROPT%NLOEN( 466)=2700,
YLGROPT%NLOEN( 467)=2700,
YLGROPT%NLOEN( 468)=2700,
YLGROPT%NLOEN( 469)=2700,
YLGROPT%NLOEN( 470)=2880,
YLGROPT%NLOEN( 471)=2880,
YLGROPT%NLOEN( 472)=2880,
YLGROPT%NLOEN( 473)=2880,
YLGROPT%NLOEN( 474)=2880,
YLGROPT%NLOEN( 475)=2880,
YLGROPT%NLOEN( 476)=2880,
YLGROPT%NLOEN( 477)=2880,
YLGROPT%NLOEN( 478)=2880,
YLGROPT%NLOEN( 479)=2880,
YLGROPT%NLOEN( 480)=2880,
YLGROPT%NLOEN( 481)=2880,
YLGROPT%NLOEN( 482)=2880,
YLGROPT%NLOEN( 483)=2880,
YLGROPT%NLOEN( 484)=2880,
YLGROPT%NLOEN( 485)=2880,
YLGROPT%NLOEN( 486)=2880,
YLGROPT%NLOEN( 487)=2880,
YLGROPT%NLOEN( 488)=2880,
YLGROPT%NLOEN( 489)=2880,
YLGROPT%NLOEN( 490)=2880,
YLGROPT%NLOEN( 491)=2880,
YLGROPT%NLOEN( 492)=2880,
YLGROPT%NLOEN( 493)=2880,
YLGROPT%NLOEN( 494)=2880,
YLGROPT%NLOEN( 495)=2880,
YLGROPT%NLOEN( 496)=2880,
YLGROPT%NLOEN( 497)=2880,
YLGROPT%NLOEN( 498)=2880,
YLGROPT%NLOEN( 499)=2880,
YLGROPT%NLOEN( 500)=2880,
YLGROPT%NLOEN( 501)=2880,
YLGROPT%NLOEN( 502)=2880,
YLGROPT%NLOEN( 503)=2880,
YLGROPT%NLOEN( 504)=2880,
YLGROPT%NLOEN( 505)=2880,
YLGROPT%NLOEN( 506)=2880,
YLGROPT%NLOEN( 507)=2880,
YLGROPT%NLOEN( 508)=2880,
YLGROPT%NLOEN( 509)=2880,
YLGROPT%NLOEN( 510)=2880,
YLGROPT%NLOEN( 511)=2880,
YLGROPT%NLOEN( 512)=2880,
YLGROPT%NLOEN( 513)=2880,
YLGROPT%NLOEN( 514)=2880,
YLGROPT%NLOEN( 515)=2916,
YLGROPT%NLOEN( 516)=2916,
YLGROPT%NLOEN( 517)=2916,
YLGROPT%NLOEN( 518)=2916,
YLGROPT%NLOEN( 519)=2916,
YLGROPT%NLOEN( 520)=2916,
YLGROPT%NLOEN( 521)=2916,
YLGROPT%NLOEN( 522)=2916,
YLGROPT%NLOEN( 523)=2916,
YLGROPT%NLOEN( 524)=3000,
YLGROPT%NLOEN( 525)=3000,
YLGROPT%NLOEN( 526)=3000,
YLGROPT%NLOEN( 527)=3000,
YLGROPT%NLOEN( 528)=3000,
YLGROPT%NLOEN( 529)=3000,
YLGROPT%NLOEN( 530)=3000,
YLGROPT%NLOEN( 531)=3000,
YLGROPT%NLOEN( 532)=3000,
YLGROPT%NLOEN( 533)=3000,
YLGROPT%NLOEN( 534)=3000,
YLGROPT%NLOEN( 535)=3000,
YLGROPT%NLOEN( 536)=3000,
YLGROPT%NLOEN( 537)=3000,
YLGROPT%NLOEN( 538)=3000,
YLGROPT%NLOEN( 539)=3000,
YLGROPT%NLOEN( 540)=3000,
YLGROPT%NLOEN( 541)=3000,
YLGROPT%NLOEN( 542)=3000,
YLGROPT%NLOEN( 543)=3000,
YLGROPT%NLOEN( 544)=3000,
YLGROPT%NLOEN( 545)=3000,
YLGROPT%NLOEN( 546)=3000,
YLGROPT%NLOEN( 547)=3072,
YLGROPT%NLOEN( 548)=3072,
YLGROPT%NLOEN( 549)=3072,
YLGROPT%NLOEN( 550)=3072,
YLGROPT%NLOEN( 551)=3072,
YLGROPT%NLOEN( 552)=3072,
YLGROPT%NLOEN( 553)=3072,
YLGROPT%NLOEN( 554)=3072,
YLGROPT%NLOEN( 555)=3072,
YLGROPT%NLOEN( 556)=3072,
YLGROPT%NLOEN( 557)=3072,
YLGROPT%NLOEN( 558)=3072,
YLGROPT%NLOEN( 559)=3072,
YLGROPT%NLOEN( 560)=3072,
YLGROPT%NLOEN( 561)=3072,
YLGROPT%NLOEN( 562)=3072,
YLGROPT%NLOEN( 563)=3072,
YLGROPT%NLOEN( 564)=3072,
YLGROPT%NLOEN( 565)=3072,
YLGROPT%NLOEN( 566)=3072,
YLGROPT%NLOEN( 567)=3072,
YLGROPT%NLOEN( 568)=3200,
YLGROPT%NLOEN( 569)=3200,
YLGROPT%NLOEN( 570)=3200,
YLGROPT%NLOEN( 571)=3200,
YLGROPT%NLOEN( 572)=3200,
YLGROPT%NLOEN( 573)=3200,
YLGROPT%NLOEN( 574)=3200,
YLGROPT%NLOEN( 575)=3200,
YLGROPT%NLOEN( 576)=3200,
YLGROPT%NLOEN( 577)=3200,
YLGROPT%NLOEN( 578)=3200,
YLGROPT%NLOEN( 579)=3200,
YLGROPT%NLOEN( 580)=3200,
YLGROPT%NLOEN( 581)=3200,
YLGROPT%NLOEN( 582)=3200,
YLGROPT%NLOEN( 583)=3200,
YLGROPT%NLOEN( 584)=3200,
YLGROPT%NLOEN( 585)=3200,
YLGROPT%NLOEN( 586)=3200,
YLGROPT%NLOEN( 587)=3200,
YLGROPT%NLOEN( 588)=3200,
YLGROPT%NLOEN( 589)=3200,
YLGROPT%NLOEN( 590)=3200,
YLGROPT%NLOEN( 591)=3200,
YLGROPT%NLOEN( 592)=3200,
YLGROPT%NLOEN( 593)=3200,
YLGROPT%NLOEN( 594)=3200,
YLGROPT%NLOEN( 595)=3200,
YLGROPT%NLOEN( 596)=3200,
YLGROPT%NLOEN( 597)=3200,
YLGROPT%NLOEN( 598)=3200,
YLGROPT%NLOEN( 599)=3200,
YLGROPT%NLOEN( 600)=3200,
YLGROPT%NLOEN( 601)=3200,
YLGROPT%NLOEN( 602)=3200,
YLGROPT%NLOEN( 603)=3200,
YLGROPT%NLOEN( 604)=3200,
YLGROPT%NLOEN( 605)=3200,
YLGROPT%NLOEN( 606)=3200,
YLGROPT%NLOEN( 607)=3200,
YLGROPT%NLOEN( 608)=3240,
YLGROPT%NLOEN( 609)=3240,
YLGROPT%NLOEN( 610)=3240,
YLGROPT%NLOEN( 611)=3240,
YLGROPT%NLOEN( 612)=3240,
YLGROPT%NLOEN( 613)=3240,
YLGROPT%NLOEN( 614)=3240,
YLGROPT%NLOEN( 615)=3240,
YLGROPT%NLOEN( 616)=3240,
YLGROPT%NLOEN( 617)=3240,
YLGROPT%NLOEN( 618)=3240,
YLGROPT%NLOEN( 619)=3240,
YLGROPT%NLOEN( 620)=3240,
YLGROPT%NLOEN( 621)=3240,
YLGROPT%NLOEN( 622)=3456,
YLGROPT%NLOEN( 623)=3456,
YLGROPT%NLOEN( 624)=3456,
YLGROPT%NLOEN( 625)=3456,
YLGROPT%NLOEN( 626)=3456,
YLGROPT%NLOEN( 627)=3456,
YLGROPT%NLOEN( 628)=3456,
YLGROPT%NLOEN( 629)=3456,
YLGROPT%NLOEN( 630)=3456,
YLGROPT%NLOEN( 631)=3456,
YLGROPT%NLOEN( 632)=3456,
YLGROPT%NLOEN( 633)=3456,
YLGROPT%NLOEN( 634)=3456,
YLGROPT%NLOEN( 635)=3456,
YLGROPT%NLOEN( 636)=3456,
YLGROPT%NLOEN( 637)=3456,
YLGROPT%NLOEN( 638)=3456,
YLGROPT%NLOEN( 639)=3456,
YLGROPT%NLOEN( 640)=3456,
YLGROPT%NLOEN( 641)=3456,
YLGROPT%NLOEN( 642)=3456,
YLGROPT%NLOEN( 643)=3456,
YLGROPT%NLOEN( 644)=3456,
YLGROPT%NLOEN( 645)=3456,
YLGROPT%NLOEN( 646)=3456,
YLGROPT%NLOEN( 647)=3456,
YLGROPT%NLOEN( 648)=3456,
YLGROPT%NLOEN( 649)=3456,
YLGROPT%NLOEN( 650)=3456,
YLGROPT%NLOEN( 651)=3456,
YLGROPT%NLOEN( 652)=3456,
YLGROPT%NLOEN( 653)=3456,
YLGROPT%NLOEN( 654)=3456,
YLGROPT%NLOEN( 655)=3456,
YLGROPT%NLOEN( 656)=3456,
YLGROPT%NLOEN( 657)=3456,
YLGROPT%NLOEN( 658)=3456,
YLGROPT%NLOEN( 659)=3456,
YLGROPT%NLOEN( 660)=3456,
YLGROPT%NLOEN( 661)=3456,
YLGROPT%NLOEN( 662)=3456,
YLGROPT%NLOEN( 663)=3456,
YLGROPT%NLOEN( 664)=3456,
YLGROPT%NLOEN( 665)=3456,
YLGROPT%NLOEN( 666)=3456,
YLGROPT%NLOEN( 667)=3456,
YLGROPT%NLOEN( 668)=3456,
YLGROPT%NLOEN( 669)=3456,
YLGROPT%NLOEN( 670)=3456,
YLGROPT%NLOEN( 671)=3456,
YLGROPT%NLOEN( 672)=3456,
YLGROPT%NLOEN( 673)=3456,
YLGROPT%NLOEN( 674)=3456,
YLGROPT%NLOEN( 675)=3456,
YLGROPT%NLOEN( 676)=3456,
YLGROPT%NLOEN( 677)=3456,
YLGROPT%NLOEN( 678)=3456,
YLGROPT%NLOEN( 679)=3456,
YLGROPT%NLOEN( 680)=3456,
YLGROPT%NLOEN( 681)=3456,
YLGROPT%NLOEN( 682)=3456,
YLGROPT%NLOEN( 683)=3456,
YLGROPT%NLOEN( 684)=3456,
YLGROPT%NLOEN( 685)=3456,
YLGROPT%NLOEN( 686)=3456,
YLGROPT%NLOEN( 687)=3456,
YLGROPT%NLOEN( 688)=3456,
YLGROPT%NLOEN( 689)=3456,
YLGROPT%NLOEN( 690)=3456,
YLGROPT%NLOEN( 691)=3456,
YLGROPT%NLOEN( 692)=3456,
YLGROPT%NLOEN( 693)=3456,
YLGROPT%NLOEN( 694)=3456,
YLGROPT%NLOEN( 695)=3456,
YLGROPT%NLOEN( 696)=3456,
YLGROPT%NLOEN( 697)=3456,
YLGROPT%NLOEN( 698)=3456,
YLGROPT%NLOEN( 699)=3456,
YLGROPT%NLOEN( 700)=3456,
YLGROPT%NLOEN( 701)=3456,
YLGROPT%NLOEN( 702)=3456,
YLGROPT%NLOEN( 703)=3456,
YLGROPT%NLOEN( 704)=3456,
YLGROPT%NLOEN( 705)=3456,
YLGROPT%NLOEN( 706)=3456,
YLGROPT%NLOEN( 707)=3456,
YLGROPT%NLOEN( 708)=3456,
YLGROPT%NLOEN( 709)=3456,
YLGROPT%NLOEN( 710)=3456,
YLGROPT%NLOEN( 711)=3456,
YLGROPT%NLOEN( 712)=3456,
YLGROPT%NLOEN( 713)=3600,
YLGROPT%NLOEN( 714)=3600,
YLGROPT%NLOEN( 715)=3600,
YLGROPT%NLOEN( 716)=3600,
YLGROPT%NLOEN( 717)=3600,
YLGROPT%NLOEN( 718)=3600,
YLGROPT%NLOEN( 719)=3600,
YLGROPT%NLOEN( 720)=3600,
YLGROPT%NLOEN( 721)=3600,
YLGROPT%NLOEN( 722)=3600,
YLGROPT%NLOEN( 723)=3600,
YLGROPT%NLOEN( 724)=3600,
YLGROPT%NLOEN( 725)=3600,
YLGROPT%NLOEN( 726)=3600,
YLGROPT%NLOEN( 727)=3600,
YLGROPT%NLOEN( 728)=3600,
YLGROPT%NLOEN( 729)=3600,
YLGROPT%NLOEN( 730)=3600,
YLGROPT%NLOEN( 731)=3600,
YLGROPT%NLOEN( 732)=3600,
YLGROPT%NLOEN( 733)=3600,
YLGROPT%NLOEN( 734)=3600,
YLGROPT%NLOEN( 735)=3600,
YLGROPT%NLOEN( 736)=3600,
YLGROPT%NLOEN( 737)=3600,
YLGROPT%NLOEN( 738)=3600,
YLGROPT%NLOEN( 739)=3600,
YLGROPT%NLOEN( 740)=3600,
YLGROPT%NLOEN( 741)=3600,
YLGROPT%NLOEN( 742)=3600,
YLGROPT%NLOEN( 743)=3600,
YLGROPT%NLOEN( 744)=3600,
YLGROPT%NLOEN( 745)=3600,
YLGROPT%NLOEN( 746)=3600,
YLGROPT%NLOEN( 747)=3600,
YLGROPT%NLOEN( 748)=3600,
YLGROPT%NLOEN( 749)=3600,
YLGROPT%NLOEN( 750)=3600,
YLGROPT%NLOEN( 751)=3600,
YLGROPT%NLOEN( 752)=3600,
YLGROPT%NLOEN( 753)=3600,
YLGROPT%NLOEN( 754)=3600,
YLGROPT%NLOEN( 755)=3600,
YLGROPT%NLOEN( 756)=3600,
YLGROPT%NLOEN( 757)=3600,
YLGROPT%NLOEN( 758)=3600,
YLGROPT%NLOEN( 759)=3600,
YLGROPT%NLOEN( 760)=3600,
YLGROPT%NLOEN( 761)=3600,
YLGROPT%NLOEN( 762)=3600,
YLGROPT%NLOEN( 763)=3600,
YLGROPT%NLOEN( 764)=3600,
YLGROPT%NLOEN( 765)=3600,
YLGROPT%NLOEN( 766)=3600,
YLGROPT%NLOEN( 767)=3600,
YLGROPT%NLOEN( 768)=3600,
YLGROPT%NLOEN( 769)=3600,
YLGROPT%NLOEN( 770)=3600,
YLGROPT%NLOEN( 771)=3600,
YLGROPT%NLOEN( 772)=3600,
YLGROPT%NLOEN( 773)=3600,
YLGROPT%NLOEN( 774)=3600,
YLGROPT%NLOEN( 775)=3600,
YLGROPT%NLOEN( 776)=3600,
YLGROPT%NLOEN( 777)=3600,
YLGROPT%NLOEN( 778)=3600,
YLGROPT%NLOEN( 779)=3600,
YLGROPT%NLOEN( 780)=3600,
YLGROPT%NLOEN( 781)=3600,
YLGROPT%NLOEN( 782)=3600,
YLGROPT%NLOEN( 783)=3600,
YLGROPT%NLOEN( 784)=3600,
YLGROPT%NLOEN( 785)=3600,
YLGROPT%NLOEN( 786)=3600,
YLGROPT%NLOEN( 787)=3600,
YLGROPT%NLOEN( 788)=3600,
YLGROPT%NLOEN( 789)=3600,
YLGROPT%NLOEN( 790)=3600,
YLGROPT%NLOEN( 791)=3600,
YLGROPT%NLOEN( 792)=3600,
YLGROPT%NLOEN( 793)=3600,
YLGROPT%NLOEN( 794)=3600,
YLGROPT%NLOEN( 795)=3600,
YLGROPT%NLOEN( 796)=3600,
YLGROPT%NLOEN( 797)=3600,
YLGROPT%NLOEN( 798)=3600,
YLGROPT%NLOEN( 799)=3600,
YLGROPT%NLOEN( 800)=3600,
YLGROPT%NLOEN( 801)=3600,
YLGROPT%NLOEN( 802)=3600,
YLGROPT%NLOEN( 803)=3600,
YLGROPT%NLOEN( 804)=3600,
YLGROPT%NLOEN( 805)=3600,
YLGROPT%NLOEN( 806)=3600,
YLGROPT%NLOEN( 807)=3600,
YLGROPT%NLOEN( 808)=3600,
YLGROPT%NLOEN( 809)=3600,
YLGROPT%NLOEN( 810)=3600,
YLGROPT%NLOEN( 811)=3600,
YLGROPT%NLOEN( 812)=3600,
YLGROPT%NLOEN( 813)=3600,
YLGROPT%NLOEN( 814)=3600,
YLGROPT%NLOEN( 815)=3600,
YLGROPT%NLOEN( 816)=3600,
YLGROPT%NLOEN( 817)=3600,
YLGROPT%NLOEN( 818)=3600,
YLGROPT%NLOEN( 819)=3600,
YLGROPT%NLOEN( 820)=3600,
YLGROPT%NLOEN( 821)=3600,
YLGROPT%NLOEN( 822)=3600,
YLGROPT%NLOEN( 823)=3600,
YLGROPT%NLOEN( 824)=3600,
YLGROPT%NLOEN( 825)=3600,
YLGROPT%NLOEN( 826)=3600,
YLGROPT%NLOEN( 827)=3600,
YLGROPT%NLOEN( 828)=3600,
YLGROPT%NLOEN( 829)=3600,
YLGROPT%NLOEN( 830)=3600,
YLGROPT%NLOEN( 831)=3600,
YLGROPT%NLOEN( 832)=3600,
YLGROPT%NLOEN( 833)=3600,
YLGROPT%NLOEN( 834)=3600,
YLGROPT%NLOEN( 835)=3600,
YLGROPT%NLOEN( 836)=3600,
YLGROPT%NLOEN( 837)=3600,
YLGROPT%NLOEN( 838)=3600,
YLGROPT%NLOEN( 839)=3600,
YLGROPT%NLOEN( 840)=3600,
YLGROPT%NLOEN( 841)=3600,
YLGROPT%NLOEN( 842)=3600,
YLGROPT%NLOEN( 843)=3600,
YLGROPT%NLOEN( 844)=3600,
YLGROPT%NLOEN( 845)=3600,
YLGROPT%NLOEN( 846)=3600,
YLGROPT%NLOEN( 847)=3600,
YLGROPT%NLOEN( 848)=3600,
YLGROPT%NLOEN( 849)=3600,
YLGROPT%NLOEN( 850)=3600,
YLGROPT%NLOEN( 851)=3600,
YLGROPT%NLOEN( 852)=3600,
YLGROPT%NLOEN( 853)=3600,
YLGROPT%NLOEN( 854)=3600,
YLGROPT%NLOEN( 855)=3600,
YLGROPT%NLOEN( 856)=3600,
YLGROPT%NLOEN( 857)=3600,
YLGROPT%NLOEN( 858)=3600,
YLGROPT%NLOEN( 859)=3600,
YLGROPT%NLOEN( 860)=3600,
YLGROPT%NLOEN( 861)=3600,
YLGROPT%NLOEN( 862)=3600,
YLGROPT%NLOEN( 863)=3600,
YLGROPT%NLOEN( 864)=3600,
YLGROPT%NLOEN( 865)=3600,
YLGROPT%NLOEN( 866)=3600,
YLGROPT%NLOEN( 867)=3600,
YLGROPT%NLOEN( 868)=3600,
YLGROPT%NLOEN( 869)=3600,
YLGROPT%NLOEN( 870)=3600,
YLGROPT%NLOEN( 871)=3600,
YLGROPT%NLOEN( 872)=3600,
YLGROPT%NLOEN( 873)=3600,
YLGROPT%NLOEN( 874)=3600,
YLGROPT%NLOEN( 875)=3600,
YLGROPT%NLOEN( 876)=3600,
YLGROPT%NLOEN( 877)=3600,
YLGROPT%NLOEN( 878)=3600,
YLGROPT%NLOEN( 879)=3600,
YLGROPT%NLOEN( 880)=3600,
YLGROPT%NLOEN( 881)=3600,
YLGROPT%NLOEN( 882)=3600,
YLGROPT%NLOEN( 883)=3600,
YLGROPT%NLOEN( 884)=3600,
YLGROPT%NLOEN( 885)=3600,
YLGROPT%NLOEN( 886)=3600,
YLGROPT%NLOEN( 887)=3600,
YLGROPT%NLOEN( 888)=3600,
YLGROPT%NLOEN( 889)=3600,
YLGROPT%NLOEN( 890)=3600,
YLGROPT%NLOEN( 891)=3600,
YLGROPT%NLOEN( 892)=3600,
YLGROPT%NLOEN( 893)=3600,
YLGROPT%NLOEN( 894)=3600,
YLGROPT%NLOEN( 895)=3600,
YLGROPT%NLOEN( 896)=3600,
YLGROPT%NLOEN( 897)=3600,
YLGROPT%NLOEN( 898)=3600,
YLGROPT%NLOEN( 899)=3600,
YLGROPT%NLOEN( 900)=3600,
YLGROPT%NLOEN( 901)=3600,
YLGROPT%NLOEN( 902)=3600,
YLGROPT%NLOEN( 903)=3600,
YLGROPT%NLOEN( 904)=3600,
YLGROPT%NLOEN( 905)=3600,
YLGROPT%NLOEN( 906)=3600,
YLGROPT%NLOEN( 907)=3600,
YLGROPT%NLOEN( 908)=3600,
YLGROPT%NLOEN( 909)=3600,
YLGROPT%NLOEN( 910)=3600,
YLGROPT%NLOEN( 911)=3600,
YLGROPT%NLOEN( 912)=3600,
YLGROPT%NLOEN( 913)=3600,
YLGROPT%NLOEN( 914)=3600,
YLGROPT%NLOEN( 915)=3600,
YLGROPT%NLOEN( 916)=3600,
YLGROPT%NLOEN( 917)=3600,
YLGROPT%NLOEN( 918)=3600,
YLGROPT%NLOEN( 919)=3600,
YLGROPT%NLOEN( 920)=3600,
YLGROPT%NLOEN( 921)=3600,
YLGROPT%NLOEN( 922)=3600,
YLGROPT%NLOEN( 923)=3600,
YLGROPT%NLOEN( 924)=3600,
YLGROPT%NLOEN( 925)=3600,
YLGROPT%NLOEN( 926)=3600,
YLGROPT%NLOEN( 927)=3600,
YLGROPT%NLOEN( 928)=3600,
YLGROPT%NLOEN( 929)=3600,
YLGROPT%NLOEN( 930)=3600,
YLGROPT%NLOEN( 931)=3600,
YLGROPT%NLOEN( 932)=3600,
YLGROPT%NLOEN( 933)=3600,
YLGROPT%NLOEN( 934)=3600,
YLGROPT%NLOEN( 935)=3600,
YLGROPT%NLOEN( 936)=3600,
YLGROPT%NLOEN( 937)=3600,
YLGROPT%NLOEN( 938)=3600,
YLGROPT%NLOEN( 939)=3600,
YLGROPT%NLOEN( 940)=3600,
YLGROPT%NLOEN( 941)=3600,
YLGROPT%NLOEN( 942)=3600,
YLGROPT%NLOEN( 943)=3600,
YLGROPT%NLOEN( 944)=3600,
YLGROPT%NLOEN( 945)=3600,
YLGROPT%NLOEN( 946)=3600,
YLGROPT%NLOEN( 947)=3600,
YLGROPT%NLOEN( 948)=3600,
YLGROPT%NLOEN( 949)=3600,
YLGROPT%NLOEN( 950)=3600,
YLGROPT%NLOEN( 951)=3600,
YLGROPT%NLOEN( 952)=3600,
YLGROPT%NLOEN( 953)=3600,
YLGROPT%NLOEN( 954)=3600,
YLGROPT%NLOEN( 955)=3600,
YLGROPT%NLOEN( 956)=3600,
YLGROPT%NLOEN( 957)=3600,
YLGROPT%NLOEN( 958)=3600,
YLGROPT%NLOEN( 959)=3600,
YLGROPT%NLOEN( 960)=3600,
YLGROPT%NLOEN( 961)=3600,
YLGROPT%NLOEN( 962)=3600,
YLGROPT%NLOEN( 963)=3600,
YLGROPT%NLOEN( 964)=3600,
YLGROPT%NLOEN( 965)=3600,
YLGROPT%NLOEN( 966)=3600,
YLGROPT%NLOEN( 967)=3600,
YLGROPT%NLOEN( 968)=3600,
YLGROPT%NLOEN( 969)=3600,
YLGROPT%NLOEN( 970)=3600,
YLGROPT%NLOEN( 971)=3600,
YLGROPT%NLOEN( 972)=3600,
YLGROPT%NLOEN( 973)=3600,
YLGROPT%NLOEN( 974)=3600,
YLGROPT%NLOEN( 975)=3600,
YLGROPT%NLOEN( 976)=3600,
YLGROPT%NLOEN( 977)=3600,
YLGROPT%NLOEN( 978)=3600,
YLGROPT%NLOEN( 979)=3600,
YLGROPT%NLOEN( 980)=3600,
YLGROPT%NLOEN( 981)=3600,
YLGROPT%NLOEN( 982)=3600,
YLGROPT%NLOEN( 983)=3600,
YLGROPT%NLOEN( 984)=3600,
YLGROPT%NLOEN( 985)=3600,
YLGROPT%NLOEN( 986)=3600,
YLGROPT%NLOEN( 987)=3600,
YLGROPT%NLOEN( 988)=3600,
YLGROPT%NLOEN( 989)=3600,
YLGROPT%NLOEN( 990)=3600,
YLGROPT%NLOEN( 991)=3600,
YLGROPT%NLOEN( 992)=3600,
YLGROPT%NLOEN( 993)=3600,
YLGROPT%NLOEN( 994)=3600,
YLGROPT%NLOEN( 995)=3600,
YLGROPT%NLOEN( 996)=3600,
YLGROPT%NLOEN( 997)=3600,
YLGROPT%NLOEN( 998)=3600,
YLGROPT%NLOEN( 999)=3600,
YLGROPT%NLOEN(1000)=3600,
YLGROPT%NLOEN(1001)=3600,
YLGROPT%NLOEN(1002)=3600,
YLGROPT%NLOEN(1003)=3600,
YLGROPT%NLOEN(1004)=3600,
YLGROPT%NLOEN(1005)=3600,
YLGROPT%NLOEN(1006)=3600,
YLGROPT%NLOEN(1007)=3600,
YLGROPT%NLOEN(1008)=3600,
YLGROPT%NLOEN(1009)=3600,
YLGROPT%NLOEN(1010)=3600,
YLGROPT%NLOEN(1011)=3600,
YLGROPT%NLOEN(1012)=3600,
YLGROPT%NLOEN(1013)=3600,
YLGROPT%NLOEN(1014)=3600,
YLGROPT%NLOEN(1015)=3600,
YLGROPT%NLOEN(1016)=3600,
YLGROPT%NLOEN(1017)=3600,
YLGROPT%NLOEN(1018)=3600,
YLGROPT%NLOEN(1019)=3600,
YLGROPT%NLOEN(1020)=3600,
YLGROPT%NLOEN(1021)=3600,
YLGROPT%NLOEN(1022)=3600,
YLGROPT%NLOEN(1023)=3600,
YLGROPT%NLOEN(1024)=3600,
YLGROPT%NLOEN(1025)=3600,
YLGROPT%NLOEN(1026)=3600,
YLGROPT%NLOEN(1027)=3600,
YLGROPT%NLOEN(1028)=3600,
YLGROPT%NLOEN(1029)=3600,
YLGROPT%NLOEN(1030)=3600,
YLGROPT%NLOEN(1031)=3600,
YLGROPT%NLOEN(1032)=3600,
YLGROPT%NLOEN(1033)=3600,
YLGROPT%NLOEN(1034)=3600,
YLGROPT%NLOEN(1035)=3600,
YLGROPT%NLOEN(1036)=3600,
YLGROPT%NLOEN(1037)=3600,
YLGROPT%NLOEN(1038)=3600,
YLGROPT%NLOEN(1039)=3600,
YLGROPT%NLOEN(1040)=3600,
YLGROPT%NLOEN(1041)=3600,
YLGROPT%NLOEN(1042)=3600,
YLGROPT%NLOEN(1043)=3600,
YLGROPT%NLOEN(1044)=3600,
YLGROPT%NLOEN(1045)=3600,
YLGROPT%NLOEN(1046)=3600,
YLGROPT%NLOEN(1047)=3600,
YLGROPT%NLOEN(1048)=3600,
YLGROPT%NLOEN(1049)=3600,
YLGROPT%NLOEN(1050)=3600,
YLGROPT%NLOEN(1051)=3600,
YLGROPT%NLOEN(1052)=3600,
YLGROPT%NLOEN(1053)=3600,
YLGROPT%NLOEN(1054)=3600,
YLGROPT%NLOEN(1055)=3600,
YLGROPT%NLOEN(1056)=3600,
YLGROPT%NLOEN(1057)=3600,
YLGROPT%NLOEN(1058)=3600,
YLGROPT%NLOEN(1059)=3600,
YLGROPT%NLOEN(1060)=3600,
YLGROPT%NLOEN(1061)=3600,
YLGROPT%NLOEN(1062)=3600,
YLGROPT%NLOEN(1063)=3600,
YLGROPT%NLOEN(1064)=3600,
YLGROPT%NLOEN(1065)=3600,
YLGROPT%NLOEN(1066)=3600,
YLGROPT%NLOEN(1067)=3600,
YLGROPT%NLOEN(1068)=3600,
YLGROPT%NLOEN(1069)=3600,
YLGROPT%NLOEN(1070)=3600,
YLGROPT%NLOEN(1071)=3600,
YLGROPT%NLOEN(1072)=3600,
YLGROPT%NLOEN(1073)=3600,
YLGROPT%NLOEN(1074)=3600,
YLGROPT%NLOEN(1075)=3600,
YLGROPT%NLOEN(1076)=3600,
YLGROPT%NLOEN(1077)=3600,
YLGROPT%NLOEN(1078)=3600,
YLGROPT%NLOEN(1079)=3600,
YLGROPT%NLOEN(1080)=3600,
YLGROPT%NLOEN(1081)=3600,
YLGROPT%NLOEN(1082)=3600,
YLGROPT%NLOEN(1083)=3600,
YLGROPT%NLOEN(1084)=3600,
YLGROPT%NLOEN(1085)=3600,
YLGROPT%NLOEN(1086)=3600,
YLGROPT%NLOEN(1087)=3600,
YLGROPT%NLOEN(1088)=3600,
YLGROPT%NLOEN(1089)=3456,
YLGROPT%NLOEN(1090)=3456,
YLGROPT%NLOEN(1091)=3456,
YLGROPT%NLOEN(1092)=3456,
YLGROPT%NLOEN(1093)=3456,
YLGROPT%NLOEN(1094)=3456,
YLGROPT%NLOEN(1095)=3456,
YLGROPT%NLOEN(1096)=3456,
YLGROPT%NLOEN(1097)=3456,
YLGROPT%NLOEN(1098)=3456,
YLGROPT%NLOEN(1099)=3456,
YLGROPT%NLOEN(1100)=3456,
YLGROPT%NLOEN(1101)=3456,
YLGROPT%NLOEN(1102)=3456,
YLGROPT%NLOEN(1103)=3456,
YLGROPT%NLOEN(1104)=3456,
YLGROPT%NLOEN(1105)=3456,
YLGROPT%NLOEN(1106)=3456,
YLGROPT%NLOEN(1107)=3456,
YLGROPT%NLOEN(1108)=3456,
YLGROPT%NLOEN(1109)=3456,
YLGROPT%NLOEN(1110)=3456,
YLGROPT%NLOEN(1111)=3456,
YLGROPT%NLOEN(1112)=3456,
YLGROPT%NLOEN(1113)=3456,
YLGROPT%NLOEN(1114)=3456,
YLGROPT%NLOEN(1115)=3456,
YLGROPT%NLOEN(1116)=3456,
YLGROPT%NLOEN(1117)=3456,
YLGROPT%NLOEN(1118)=3456,
YLGROPT%NLOEN(1119)=3456,
YLGROPT%NLOEN(1120)=3456,
YLGROPT%NLOEN(1121)=3456,
YLGROPT%NLOEN(1122)=3456,
YLGROPT%NLOEN(1123)=3456,
YLGROPT%NLOEN(1124)=3456,
YLGROPT%NLOEN(1125)=3456,
YLGROPT%NLOEN(1126)=3456,
YLGROPT%NLOEN(1127)=3456,
YLGROPT%NLOEN(1128)=3456,
YLGROPT%NLOEN(1129)=3456,
YLGROPT%NLOEN(1130)=3456,
YLGROPT%NLOEN(1131)=3456,
YLGROPT%NLOEN(1132)=3456,
YLGROPT%NLOEN(1133)=3456,
YLGROPT%NLOEN(1134)=3456,
YLGROPT%NLOEN(1135)=3456,
YLGROPT%NLOEN(1136)=3456,
YLGROPT%NLOEN(1137)=3456,
YLGROPT%NLOEN(1138)=3456,
YLGROPT%NLOEN(1139)=3456,
YLGROPT%NLOEN(1140)=3456,
YLGROPT%NLOEN(1141)=3456,
YLGROPT%NLOEN(1142)=3456,
YLGROPT%NLOEN(1143)=3456,
YLGROPT%NLOEN(1144)=3456,
YLGROPT%NLOEN(1145)=3456,
YLGROPT%NLOEN(1146)=3456,
YLGROPT%NLOEN(1147)=3456,
YLGROPT%NLOEN(1148)=3456,
YLGROPT%NLOEN(1149)=3456,
YLGROPT%NLOEN(1150)=3456,
YLGROPT%NLOEN(1151)=3456,
YLGROPT%NLOEN(1152)=3456,
YLGROPT%NLOEN(1153)=3456,
YLGROPT%NLOEN(1154)=3456,
YLGROPT%NLOEN(1155)=3456,
YLGROPT%NLOEN(1156)=3456,
YLGROPT%NLOEN(1157)=3456,
YLGROPT%NLOEN(1158)=3456,
YLGROPT%NLOEN(1159)=3456,