&NAMGRID
  YLGROPT%NDLON=4,
  YLGROPT%NDGLG=4,
  YLGROPT%ZLONW=+6.8,
  YLGROPT%ZLONE=+7.2,
  YLGROPT%ZLATS=+45.8,
  YLGROPT%ZLATN=+46.2,
  YLGROPT%LATLON=.TRUE.,
/
