&NAMGRID
  YLGROPT%NDLON=160,
  YLGROPT%NDGLG=160,
  YLGROPT%ZLONW=-3,
  YLGROPT%ZLONE=+17,
  YLGROPT%ZLATS=+36,
  YLGROPT%ZLATN=+56,
  YLGROPT%LATLON=.TRUE.,
/
