&NAMGRID
  YLGROPT%NDLON=180,
  YLGROPT%NDGLG=91,
  YLGROPT%LATLON=.TRUE.,
/
