&NAMGRID
YLGROPT%NLOEN(  1) =18,
YLGROPT%NLOEN(  2) =30,
YLGROPT%NLOEN(  3) =32,
YLGROPT%NLOEN(  4) =40,
YLGROPT%NLOEN(  5) =50,
YLGROPT%NLOEN(  6) =60,
YLGROPT%NLOEN(  7) =64,
YLGROPT%NLOEN(  8) =72,
YLGROPT%NLOEN(  9) =80,
YLGROPT%NLOEN( 10) =90,
YLGROPT%NLOEN( 11) =96,
YLGROPT%NLOEN( 12) =100,
YLGROPT%NLOEN( 13) =108,
YLGROPT%NLOEN( 14) =120,
YLGROPT%NLOEN( 15) =128,
YLGROPT%NLOEN( 16) =128,
YLGROPT%NLOEN( 17) =144,
YLGROPT%NLOEN( 18) =144,
YLGROPT%NLOEN( 19) =150,
YLGROPT%NLOEN( 20) =160,
YLGROPT%NLOEN( 21) =180,
YLGROPT%NLOEN( 22) =180,
YLGROPT%NLOEN( 23) =180,
YLGROPT%NLOEN( 24) =192,
YLGROPT%NLOEN( 25) =192,
YLGROPT%NLOEN( 26) =200,
YLGROPT%NLOEN( 27) =216,
YLGROPT%NLOEN( 28) =216,
YLGROPT%NLOEN( 29) =240,
YLGROPT%NLOEN( 30) =240,
YLGROPT%NLOEN( 31) =240,
YLGROPT%NLOEN( 32) =240,
YLGROPT%NLOEN( 33) =250,
YLGROPT%NLOEN( 34) =250,
YLGROPT%NLOEN( 35) =256,
YLGROPT%NLOEN( 36) =270,
YLGROPT%NLOEN( 37) =270,
YLGROPT%NLOEN( 38) =288,
YLGROPT%NLOEN( 39) =288,
YLGROPT%NLOEN( 40) =288,
YLGROPT%NLOEN( 41) =300,
YLGROPT%NLOEN( 42) =320,
YLGROPT%NLOEN( 43) =320,
YLGROPT%NLOEN( 44) =320,
YLGROPT%NLOEN( 45) =320,
YLGROPT%NLOEN( 46) =360,
YLGROPT%NLOEN( 47) =360,
YLGROPT%NLOEN( 48) =360,
YLGROPT%NLOEN( 49) =360,
YLGROPT%NLOEN( 50) =360,
YLGROPT%NLOEN( 51) =360,
YLGROPT%NLOEN( 52) =384,
YLGROPT%NLOEN( 53) =384,
YLGROPT%NLOEN( 54) =384,
YLGROPT%NLOEN( 55) =384,
YLGROPT%NLOEN( 56) =400,
YLGROPT%NLOEN( 57) =400,
YLGROPT%NLOEN( 58) =400,
YLGROPT%NLOEN( 59) =432,
YLGROPT%NLOEN( 60) =432,
YLGROPT%NLOEN( 61) =432,
YLGROPT%NLOEN( 62) =432,
YLGROPT%NLOEN( 63) =432,
YLGROPT%NLOEN( 64) =450,
YLGROPT%NLOEN( 65) =450,
YLGROPT%NLOEN( 66) =450,
YLGROPT%NLOEN( 67) =480,
YLGROPT%NLOEN( 68) =480,
YLGROPT%NLOEN( 69) =480,
YLGROPT%NLOEN( 70) =480,
YLGROPT%NLOEN( 71) =480,
YLGROPT%NLOEN( 72) =486,
YLGROPT%NLOEN( 73) =500,
YLGROPT%NLOEN( 74) =500,
YLGROPT%NLOEN( 75) =512,
YLGROPT%NLOEN( 76) =512,
YLGROPT%NLOEN( 77) =512,
YLGROPT%NLOEN( 78) =540,
YLGROPT%NLOEN( 79) =540,
YLGROPT%NLOEN( 80) =540,
YLGROPT%NLOEN( 81) =540,
YLGROPT%NLOEN( 82) =576,
YLGROPT%NLOEN( 83) =576,
YLGROPT%NLOEN( 84) =576,
YLGROPT%NLOEN( 85) =576,
YLGROPT%NLOEN( 86) =576,
YLGROPT%NLOEN( 87) =576,
YLGROPT%NLOEN( 88) =576,
YLGROPT%NLOEN( 89) =600,
YLGROPT%NLOEN( 90) =600,
YLGROPT%NLOEN( 91) =600,
YLGROPT%NLOEN( 92) =600,
YLGROPT%NLOEN( 93) =640,
YLGROPT%NLOEN( 94) =640,
YLGROPT%NLOEN( 95) =640,
YLGROPT%NLOEN( 96) =640,
YLGROPT%NLOEN( 97) =640,
YLGROPT%NLOEN( 98) =640,
YLGROPT%NLOEN( 99) =640,
YLGROPT%NLOEN(100) =640,
YLGROPT%NLOEN(101) =640,
YLGROPT%NLOEN(102) =648,
YLGROPT%NLOEN(103) =720,
YLGROPT%NLOEN(104) =720,
YLGROPT%NLOEN(105) =720,
YLGROPT%NLOEN(106) =720,
YLGROPT%NLOEN(107) =720,
YLGROPT%NLOEN(108) =720,
YLGROPT%NLOEN(109) =720,
YLGROPT%NLOEN(110) =720,
YLGROPT%NLOEN(111) =720,
YLGROPT%NLOEN(112) =720,
YLGROPT%NLOEN(113) =720,
YLGROPT%NLOEN(114) =720,
YLGROPT%NLOEN(115) =720,
YLGROPT%NLOEN(116) =720,
YLGROPT%NLOEN(117) =720,
YLGROPT%NLOEN(118) =750,
YLGROPT%NLOEN(119) =750,
YLGROPT%NLOEN(120) =750,
YLGROPT%NLOEN(121) =750,
YLGROPT%NLOEN(122) =750,
YLGROPT%NLOEN(123) =750,
YLGROPT%NLOEN(124) =768,
YLGROPT%NLOEN(125) =768,
YLGROPT%NLOEN(126) =768,
YLGROPT%NLOEN(127) =768,
YLGROPT%NLOEN(128) =800,
YLGROPT%NLOEN(129) =800,
YLGROPT%NLOEN(130) =800,
YLGROPT%NLOEN(131) =800,
YLGROPT%NLOEN(132) =800,
YLGROPT%NLOEN(133) =800,
YLGROPT%NLOEN(134) =800,
YLGROPT%NLOEN(135) =800,
YLGROPT%NLOEN(136) =810,
YLGROPT%NLOEN(137) =810,
YLGROPT%NLOEN(138) =810,
YLGROPT%NLOEN(139) =864,
YLGROPT%NLOEN(140) =864,
YLGROPT%NLOEN(141) =864,
YLGROPT%NLOEN(142) =864,
YLGROPT%NLOEN(143) =864,
YLGROPT%NLOEN(144) =864,
YLGROPT%NLOEN(145) =864,
YLGROPT%NLOEN(146) =864,
YLGROPT%NLOEN(147) =864,
YLGROPT%NLOEN(148) =864,
YLGROPT%NLOEN(149) =864,
YLGROPT%NLOEN(150) =864,
YLGROPT%NLOEN(151) =864,
YLGROPT%NLOEN(152) =864,
YLGROPT%NLOEN(153) =900,
YLGROPT%NLOEN(154) =900,
YLGROPT%NLOEN(155) =900,
YLGROPT%NLOEN(156) =900,
YLGROPT%NLOEN(157) =900,
YLGROPT%NLOEN(158) =900,
YLGROPT%NLOEN(159) =900,
YLGROPT%NLOEN(160) =900,
YLGROPT%NLOEN(161) =900,
YLGROPT%NLOEN(162) =900,
YLGROPT%NLOEN(163) =900,
YLGROPT%NLOEN(164) =960,
YLGROPT%NLOEN(165) =960,
YLGROPT%NLOEN(166) =960,
YLGROPT%NLOEN(167) =960,
YLGROPT%NLOEN(168) =960,
YLGROPT%NLOEN(169) =960,
YLGROPT%NLOEN(170) =960,
YLGROPT%NLOEN(171) =960,
YLGROPT%NLOEN(172) =960,
YLGROPT%NLOEN(173) =960,
YLGROPT%NLOEN(174) =960,
YLGROPT%NLOEN(175) =960,
YLGROPT%NLOEN(176) =960,
YLGROPT%NLOEN(177) =960,
YLGROPT%NLOEN(178) =960,
YLGROPT%NLOEN(179) =960,
YLGROPT%NLOEN(180) =960,
YLGROPT%NLOEN(181) =960,
YLGROPT%NLOEN(182) =960,
YLGROPT%NLOEN(183) =960,
YLGROPT%NLOEN(184) =960,
YLGROPT%NLOEN(185) =960,
YLGROPT%NLOEN(186) =960,
YLGROPT%NLOEN(187) =960,
YLGROPT%NLOEN(188) =972,
YLGROPT%NLOEN(189) =972,
YLGROPT%NLOEN(190) =972,
YLGROPT%NLOEN(191) =972,
YLGROPT%NLOEN(192) =972,
YLGROPT%NLOEN(193) =972,
YLGROPT%NLOEN(194) =1000,
YLGROPT%NLOEN(195) =1000,
YLGROPT%NLOEN(196) =1000,
YLGROPT%NLOEN(197) =1000,
YLGROPT%NLOEN(198) =1000,
YLGROPT%NLOEN(199) =1000,
YLGROPT%NLOEN(200) =1000,
YLGROPT%NLOEN(201) =1000,
YLGROPT%NLOEN(202) =1000,
YLGROPT%NLOEN(203) =1000,
YLGROPT%NLOEN(204) =1000,
YLGROPT%NLOEN(205) =1000,
YLGROPT%NLOEN(206) =1000,
YLGROPT%NLOEN(207) =1000,
YLGROPT%NLOEN(208) =1000,
YLGROPT%NLOEN(209) =1000,
YLGROPT%NLOEN(210) =1000,
YLGROPT%NLOEN(211) =1000,
YLGROPT%NLOEN(212) =1000,
YLGROPT%NLOEN(213) =1000,
YLGROPT%NLOEN(214) =1000,
YLGROPT%NLOEN(215) =1000,
YLGROPT%NLOEN(216) =1000,
YLGROPT%NLOEN(217) =1000,
YLGROPT%NLOEN(218) =1000,
YLGROPT%NLOEN(219) =1000,
YLGROPT%NLOEN(220) =1000,
YLGROPT%NLOEN(221) =1000,
YLGROPT%NLOEN(222) =1000,
YLGROPT%NLOEN(223) =1000,
YLGROPT%NLOEN(224) =1000,
YLGROPT%NLOEN(225) =1000,
YLGROPT%NLOEN(226) =1000,
YLGROPT%NLOEN(227) =1000,
YLGROPT%NLOEN(228) =1000,
YLGROPT%NLOEN(229) =1000,
YLGROPT%NLOEN(230) =1000,
YLGROPT%NLOEN(231) =1000,
YLGROPT%NLOEN(232) =1000,
YLGROPT%NLOEN(233) =1000,
YLGROPT%NLOEN(234) =1000,
YLGROPT%NLOEN(235) =1000,
YLGROPT%NLOEN(236) =1000,
YLGROPT%NLOEN(237) =1000,
YLGROPT%NLOEN(238) =1000,
YLGROPT%NLOEN(239) =1000,
YLGROPT%NLOEN(240) =1000,
YLGROPT%NLOEN(241) =1000,
YLGROPT%NLOEN(242) =1000,
YLGROPT%NLOEN(243) =1000,
YLGROPT%NLOEN(244) =1000,
YLGROPT%NLOEN(245) =1000,
YLGROPT%NLOEN(246) =1000,
YLGROPT%NLOEN(247) =1000,
YLGROPT%NLOEN(248) =1000,
YLGROPT%NLOEN(249) =1000,
YLGROPT%NLOEN(250) =1000,
YLGROPT%NLOEN(251) =1000,
YLGROPT%NLOEN(252) =1000,
YLGROPT%NLOEN(253) =1000,
YLGROPT%NLOEN(254) =1000,
YLGROPT%NLOEN(255) =1000,
YLGROPT%NLOEN(256) =1000,
YLGROPT%NLOEN(257) =1000,
YLGROPT%NLOEN(258) =1000,
YLGROPT%NLOEN(259) =1000,
YLGROPT%NLOEN(260) =1000,
YLGROPT%NLOEN(261) =1000,
YLGROPT%NLOEN(262) =1000,
YLGROPT%NLOEN(263) =1000,
YLGROPT%NLOEN(264) =1000,
YLGROPT%NLOEN(265) =1000,
YLGROPT%NLOEN(266) =1000,
YLGROPT%NLOEN(267) =1000,
YLGROPT%NLOEN(268) =1000,
YLGROPT%NLOEN(269) =1000,
YLGROPT%NLOEN(270) =1000,
YLGROPT%NLOEN(271) =1000,
YLGROPT%NLOEN(272) =1000,
YLGROPT%NLOEN(273) =1000,
YLGROPT%NLOEN(274) =1000,
YLGROPT%NLOEN(275) =1000,
YLGROPT%NLOEN(276) =1000,
YLGROPT%NLOEN(277) =1000,
YLGROPT%NLOEN(278) =1000,
YLGROPT%NLOEN(279) =1000,
YLGROPT%NLOEN(280) =1000,
YLGROPT%NLOEN(281) =1000,
YLGROPT%NLOEN(282) =1000,
YLGROPT%NLOEN(283) =1000,
YLGROPT%NLOEN(284) =1000,
YLGROPT%NLOEN(285) =1000,
YLGROPT%NLOEN(286) =1000,
YLGROPT%NLOEN(287) =1000,
YLGROPT%NLOEN(288) =1000,
YLGROPT%NLOEN(289) =1000,
YLGROPT%NLOEN(290) =1000,
YLGROPT%NLOEN(291) =1000,
YLGROPT%NLOEN(292) =1000,
YLGROPT%NLOEN(293) =1000,
YLGROPT%NLOEN(294) =1000,
YLGROPT%NLOEN(295) =1000,
YLGROPT%NLOEN(296) =1000,
YLGROPT%NLOEN(297) =1000,
YLGROPT%NLOEN(298) =1000,
YLGROPT%NLOEN(299) =1000,
YLGROPT%NLOEN(300) =1000,
YLGROPT%NLOEN(301) =1000,
YLGROPT%NLOEN(302) =1000,
YLGROPT%NLOEN(303) =1000,
YLGROPT%NLOEN(304) =1000,
YLGROPT%NLOEN(305) =1000,
YLGROPT%NLOEN(306) =1000,
YLGROPT%NLOEN(307) =1000,
YLGROPT%NLOEN(308) =972,
YLGROPT%NLOEN(309) =972,
YLGROPT%NLOEN(310) =972,
YLGROPT%NLOEN(311) =972,
YLGROPT%NLOEN(312) =972,
YLGROPT%NLOEN(313) =972,
YLGROPT%NLOEN(314) =960,
YLGROPT%NLOEN(315) =960,
YLGROPT%NLOEN(316) =960,
YLGROPT%NLOEN(317) =960,
YLGROPT%NLOEN(318) =960,
YLGROPT%NLOEN(319) =960,
YLGROPT%NLOEN(320) =960,
YLGROPT%NLOEN(321) =960,
YLGROPT%NLOEN(322) =960,
YLGROPT%NLOEN(323) =960,
YLGROPT%NLOEN(324) =960,
YLGROPT%NLOEN(325) =960,
YLGROPT%NLOEN(326) =960,
YLGROPT%NLOEN(327) =960,
YLGROPT%NLOEN(328) =960,
YLGROPT%NLOEN(329) =960,
YLGROPT%NLOEN(330) =960,
YLGROPT%NLOEN(331) =960,
YLGROPT%NLOEN(332) =960,
YLGROPT%NLOEN(333) =960,
YLGROPT%NLOEN(334) =960,
YLGROPT%NLOEN(335) =960,
YLGROPT%NLOEN(336) =960,
YLGROPT%NLOEN(337) =960,
YLGROPT%NLOEN(338) =900,
YLGROPT%NLOEN(339) =900,
YLGROPT%NLOEN(340) =900,
YLGROPT%NLOEN(341) =900,
YLGROPT%NLOEN(342) =900,
YLGROPT%NLOEN(343) =900,
YLGROPT%NLOEN(344) =900,
YLGROPT%NLOEN(345) =900,
YLGROPT%NLOEN(346) =900,
YLGROPT%NLOEN(347) =900,
YLGROPT%NLOEN(348) =900,
YLGROPT%NLOEN(349) =864,
YLGROPT%NLOEN(350) =864,
YLGROPT%NLOEN(351) =864,
YLGROPT%NLOEN(352) =864,
YLGROPT%NLOEN(353) =864,
YLGROPT%NLOEN(354) =864,
YLGROPT%NLOEN(355) =864,
YLGROPT%NLOEN(356) =864,
YLGROPT%NLOEN(357) =864,
YLGROPT%NLOEN(358) =864,
YLGROPT%NLOEN(359) =864,
YLGROPT%NLOEN(360) =864,
YLGROPT%NLOEN(361) =864,
YLGROPT%NLOEN(362) =864,
YLGROPT%NLOEN(363) =810,
YLGROPT%NLOEN(364) =810,
YLGROPT%NLOEN(365) =810,
YLGROPT%NLOEN(366) =800,
YLGROPT%NLOEN(367) =800,
YLGROPT%NLOEN(368) =800,
YLGROPT%NLOEN(369) =800,
YLGROPT%NLOEN(370) =800,
YLGROPT%NLOEN(371) =800,
YLGROPT%NLOEN(372) =800,
YLGROPT%NLOEN(373) =800,
YLGROPT%NLOEN(374) =768,
YLGROPT%NLOEN(375) =768,
YLGROPT%NLOEN(376) =768,
YLGROPT%NLOEN(377) =768,
YLGROPT%NLOEN(378) =750,
YLGROPT%NLOEN(379) =750,
YLGROPT%NLOEN(380) =750,
YLGROPT%NLOEN(381) =750,
YLGROPT%NLOEN(382) =750,
YLGROPT%NLOEN(383) =750,
YLGROPT%NLOEN(384) =720,
YLGROPT%NLOEN(385) =720,
YLGROPT%NLOEN(386) =720,
YLGROPT%NLOEN(387) =720,
YLGROPT%NLOEN(388) =720,
YLGROPT%NLOEN(389) =720,
YLGROPT%NLOEN(390) =720,
YLGROPT%NLOEN(391) =720,
YLGROPT%NLOEN(392) =720,
YLGROPT%NLOEN(393) =720,
YLGROPT%NLOEN(394) =720,
YLGROPT%NLOEN(395) =720,
YLGROPT%NLOEN(396) =720,
YLGROPT%NLOEN(397) =720,
YLGROPT%NLOEN(398) =720,
YLGROPT%NLOEN(399) =648,
YLGROPT%NLOEN(400) =640,
YLGROPT%NLOEN(401) =640,
YLGROPT%NLOEN(402) =640,
YLGROPT%NLOEN(403) =640,
YLGROPT%NLOEN(404) =640,
YLGROPT%NLOEN(405) =640,
YLGROPT%NLOEN(406) =640,
YLGROPT%NLOEN(407) =640,
YLGROPT%NLOEN(408) =640,
YLGROPT%NLOEN(409) =600,
YLGROPT%NLOEN(410) =600,
YLGROPT%NLOEN(411) =600,
YLGROPT%NLOEN(412) =600,
YLGROPT%NLOEN(413) =576,
YLGROPT%NLOEN(414) =576,
YLGROPT%NLOEN(415) =576,
YLGROPT%NLOEN(416) =576,
YLGROPT%NLOEN(417) =576,
YLGROPT%NLOEN(418) =576,
YLGROPT%NLOEN(419) =576,
YLGROPT%NLOEN(420) =540,
YLGROPT%NLOEN(421) =540,
YLGROPT%NLOEN(422) =540,
YLGROPT%NLOEN(423) =540,
YLGROPT%NLOEN(424) =512,
YLGROPT%NLOEN(425) =512,
YLGROPT%NLOEN(426) =512,
YLGROPT%NLOEN(427) =500,
YLGROPT%NLOEN(428) =500,
YLGROPT%NLOEN(429) =486,
YLGROPT%NLOEN(430) =480,
YLGROPT%NLOEN(431) =480,
YLGROPT%NLOEN(432) =480,
YLGROPT%NLOEN(433) =480,
YLGROPT%NLOEN(434) =480,
YLGROPT%NLOEN(435) =450,
YLGROPT%NLOEN(436) =450,
YLGROPT%NLOEN(437) =450,
YLGROPT%NLOEN(438) =432,
YLGROPT%NLOEN(439) =432,
YLGROPT%NLOEN(440) =432,
YLGROPT%NLOEN(441) =432,
YLGROPT%NLOEN(442) =432,
YLGROPT%NLOEN(443) =400,
YLGROPT%NLOEN(444) =400,
YLGROPT%NLOEN(445) =400,
YLGROPT%NLOEN(446) =384,
YLGROPT%NLOEN(447) =384,
YLGROPT%NLOEN(448) =384,
YLGROPT%NLOEN(449) =384,
YLGROPT%NLOEN(450) =360,
YLGROPT%NLOEN(451) =360,
YLGROPT%NLOEN(452) =360,
YLGROPT%NLOEN(453) =360,
YLGROPT%NLOEN(454) =360,
YLGROPT%NLOEN(455) =360,
YLGROPT%NLOEN(456) =320,
YLGROPT%NLOEN(457) =320,
YLGROPT%NLOEN(458) =320,
YLGROPT%NLOEN(459) =320,
YLGROPT%NLOEN(460) =300,
YLGROPT%NLOEN(461) =288,
YLGROPT%NLOEN(462) =288,
YLGROPT%NLOEN(463) =288,
YLGROPT%NLOEN(464) =270,
YLGROPT%NLOEN(465) =270,
YLGROPT%NLOEN(466) =256,
YLGROPT%NLOEN(467) =250,
YLGROPT%NLOEN(468) =250,
YLGROPT%NLOEN(469) =240,
YLGROPT%NLOEN(470) =240,
YLGROPT%NLOEN(471) =240,
YLGROPT%NLOEN(472) =240,
YLGROPT%NLOEN(473) =216,
YLGROPT%NLOEN(474) =216,
YLGROPT%NLOEN(475) =200,
YLGROPT%NLOEN(476) =192,
YLGROPT%NLOEN(477) =192,
YLGROPT%NLOEN(478) =180,
YLGROPT%NLOEN(479) =180,
YLGROPT%NLOEN(480) =180,
YLGROPT%NLOEN(481) =160,
YLGROPT%NLOEN(482) =150,
YLGROPT%NLOEN(483) =144,
YLGROPT%NLOEN(484) =144,
YLGROPT%NLOEN(485) =128,
YLGROPT%NLOEN(486) =128,
YLGROPT%NLOEN(487) =120,
YLGROPT%NLOEN(488) =108,
YLGROPT%NLOEN(489) =100,
YLGROPT%NLOEN(490) =96,
YLGROPT%NLOEN(491) =90,
YLGROPT%NLOEN(492) =80,
YLGROPT%NLOEN(493) =72,
YLGROPT%NLOEN(494) =64,
YLGROPT%NLOEN(495) =60,
YLGROPT%NLOEN(496) =50,
YLGROPT%NLOEN(497) =40,
YLGROPT%NLOEN(498) =32,
YLGROPT%NLOEN(499) =30,
YLGROPT%NLOEN(500) =18,
YLGROPT%NDGLG=500,
YLGROPT%NDLON=1000,
/
