&NAMGRID
  YLGROPT%NDLON=100,
  YLGROPT%NDGLG=50,
  YLGROPT%ZLONW=-30,
  YLGROPT%ZLONE=+69,
  YLGROPT%ZLATN=+20,
  YLGROPT%ZLATS=+69,
  YLGROPT%LATLON=.TRUE.,
/
